REMARK  15 active torsions:
REMARK  status: ('A' for Active; 'I' for Inactive)
REMARK    1  A    between atoms: N_3  and  C_14 
REMARK    2  A    between atoms: N_6  and  C_32 
REMARK    3  A    between atoms: N_6  and  C_35 
REMARK    4  A    between atoms: C_8  and  C_9 
REMARK    5  A    between atoms: C_8  and  C_11 
REMARK    6  A    between atoms: C_9  and  C_22 
REMARK    7  A    between atoms: C_10  and  C_16 
REMARK    8  A    between atoms: C_11  and  C_13 
REMARK    9  A    between atoms: C_11  and  C_15 
REMARK   10  A    between atoms: C_17  and  C_22 
REMARK   11  A    between atoms: C_17  and  C_26 
REMARK   12  A    between atoms: C_18  and  C_26 
REMARK   13  A    between atoms: C_27  and  C_32 
REMARK   14  A    between atoms: C_30  and  C_31 
REMARK   15  A    between atoms: C_31  and  C_32 
ROOT
HETATM    1  N   UNK             9.585  -2.282   0.000  0.00  0.00     0.000 N 
HETATM    2  N   UNK             7.772  -2.477   0.000  0.00  0.00    -0.308 NA
HETATM    3  C   UNK             8.638  -0.977   0.000  0.00  0.00     0.018 A 
HETATM    4  C   UNK            10.168  -1.477   0.000  0.00  0.00     0.015 A 
HETATM    5  C   UNK             8.638  -1.977   0.000  0.00  0.00     0.089 A 
HETATM    6  C   UNK             9.585  -0.672   0.000  0.00  0.00     0.017 A 
HETATM    7  C   UNK             6.906  -1.977   0.000  0.00  0.00     0.128 A 
HETATM    8  H   UNK             9.777  -2.871   0.000  0.00  0.00     0.000 HD
ENDROOT
BRANCH   4   9
HETATM    9  C   UNK            11.168  -1.477   0.000  0.00  0.00    -0.017 A 
HETATM   10  C   UNK            11.668  -0.611   0.000  0.00  0.00     0.005 A 
HETATM   11  C   UNK            12.668  -0.611   0.000  0.00  0.00    -0.030 A 
HETATM   12  C   UNK            11.668  -2.343   0.000  0.00  0.00     0.006 A 
HETATM   13  C   UNK            13.168   0.255   0.000  0.00  0.00     0.016 A 
HETATM   14  C   UNK            13.168  -1.477   0.000  0.00  0.00    -0.019 A 
HETATM   15  C   UNK            12.668  -2.343   0.000  0.00  0.00     0.005 A 
HETATM   16  C   UNK            14.668  -0.611   0.000  0.00  0.00     0.035 A 
HETATM   17  N   UNK            14.168   0.255   0.000  0.00  0.00     0.000 N 
HETATM   18  C   UNK            14.668   1.121   0.000  0.00  0.00     0.000 C 
ENDBRANCH   4   9
BRANCH   3  19
HETATM   19  C   UNK             7.772  -0.477   0.000  0.00  0.00     0.024 A 
HETATM   20  C   UNK             7.772   0.523   0.000  0.00  0.00     0.040 A 
HETATM   21  C   UNK             6.963   1.111   0.000  0.00  0.00     0.058 A 
HETATM   22  C   UNK             6.906  -0.977   0.000  0.00  0.00     0.039 A 
HETATM   23  C   UNK             6.012   0.802   0.000  0.00  0.00     0.006 A 
HETATM   24  C   UNK             5.269   1.471   0.000  0.00  0.00     0.048 A 
HETATM   25  C   UNK             4.318   1.162   0.000  0.00  0.00     0.033 A 
BRANCH  20  26
HETATM   26  C   UNK             8.581   1.111   0.000  0.00  0.00     0.287 A 
HETATM   27  N   UNK             8.272   2.062   0.000  0.00  0.00    -0.041 N 
HETATM   28  N   UNK             7.272   2.062   0.000  0.00  0.00    -0.115 NA
HETATM   29  C   UNK             8.860   2.871   0.000  0.00  0.00     0.678 A 
HETATM   30  C   UNK             9.854   2.766   0.000  0.00  0.00     0.025 C 
ENDBRANCH  20  26
BRANCH  24  31
HETATM   31  C   UNK             4.110   0.184   0.000  0.00  0.00     0.031 A 
HETATM   32  C   UNK             4.853  -0.485   0.000  0.00  0.00     0.026 A 
HETATM   33  C   UNK             5.804  -0.176   0.000  0.00  0.00     0.031 A 
BRANCH  31  34
HETATM   34  N   UNK             3.159  -0.125   0.000  0.00  0.00    -0.360 N 
HETATM   35  H   UNK             2.698   0.290   0.000  0.00  0.00     0.162 HD
BRANCH  34  36
HETATM   36  C   UNK             2.951  -1.103   0.000  0.00  0.00     0.137 A 
HETATM   37  N   UNK             3.694  -1.773   0.000  0.00  0.00     0.000 N 
HETATM   38  C   UNK             3.486  -2.751   0.000  0.00  0.00     0.106 A 
HETATM   39  C   UNK             4.645  -1.463   0.000  0.00  0.00     0.107 A 
HETATM   40  O   UNK             2.000  -1.412   0.000  0.00  0.00    -0.284 OA
ENDBRANCH  34  36
ENDBRANCH  31  34
ENDBRANCH  24  31
ENDBRANCH   3  19
TORSDOF 15
