46885626
  -OEChem-07182302542D

 71 75  0     0  0  0  0  0  0999 V2000
    2.0000   -1.4124    0.0000 O   0  0  0  0  0  0  0  0  0  0  0  0
    9.5845   -2.2816    0.0000 N   0  0  0  0  0  0  0  0  0  0  0  0
    8.2722    2.0619    0.0000 N   0  0  0  0  0  0  0  0  0  0  0  0
    7.2722    2.0619    0.0000 N   0  0  0  0  0  0  0  0  0  0  0  0
    7.7722   -2.4769    0.0000 N   0  0  0  0  0  0  0  0  0  0  0  0
   14.1681    0.2551    0.0000 N   0  0  0  0  0  0  0  0  0  0  0  0
    3.1590   -0.1252    0.0000 N   0  0  0  0  0  0  0  0  0  0  0  0
    3.6942   -1.7725    0.0000 N   0  0  0  0  0  0  0  0  0  0  0  0
    8.6382   -0.9769    0.0000 C   0  0  0  0  0  0  0  0  0  0  0  0
    7.7722   -0.4769    0.0000 C   0  0  0  0  0  0  0  0  0  0  0  0
    7.7722    0.5231    0.0000 C   0  0  0  0  0  0  0  0  0  0  0  0
   10.1681   -1.4769    0.0000 C   0  0  0  0  0  0  0  0  0  0  0  0
    8.6382   -1.9769    0.0000 C   0  0  0  0  0  0  0  0  0  0  0  0
    9.5845   -0.6722    0.0000 C   0  0  0  0  0  0  0  0  0  0  0  0
    6.9632    1.1109    0.0000 C   0  0  0  0  0  0  0  0  0  0  0  0
   11.1681   -1.4769    0.0000 C   0  0  0  0  0  0  0  0  0  0  0  0
    8.5812    1.1109    0.0000 C   0  0  0  0  0  0  0  0  0  0  0  0
    6.9062   -0.9769    0.0000 C   0  0  0  0  0  0  0  0  0  0  0  0
    6.0121    0.8019    0.0000 C   0  0  0  0  0  0  0  0  0  0  0  0
   11.6681   -0.6109    0.0000 C   0  0  0  0  0  0  0  0  0  0  0  0
   12.6681   -0.6109    0.0000 C   0  0  0  0  0  0  0  0  0  0  0  0
    8.8600    2.8710    0.0000 C   0  0  0  0  0  0  0  0  0  0  0  0
    6.9062   -1.9769    0.0000 C   0  0  0  0  0  0  0  0  0  0  0  0
   13.1681    0.2551    0.0000 C   0  0  0  0  0  0  0  0  0  0  0  0
   11.6681   -2.3429    0.0000 C   0  0  0  0  0  0  0  0  0  0  0  0
   13.1681   -1.4769    0.0000 C   0  0  0  0  0  0  0  0  0  0  0  0
    5.8042   -0.1763    0.0000 C   0  0  0  0  0  0  0  0  0  0  0  0
    5.2690    1.4710    0.0000 C   0  0  0  0  0  0  0  0  0  0  0  0
   12.6681   -2.3429    0.0000 C   0  0  0  0  0  0  0  0  0  0  0  0
    9.8545    2.7664    0.0000 C   0  0  0  0  0  0  0  0  0  0  0  0
    4.8532   -0.4853    0.0000 C   0  0  0  0  0  0  0  0  0  0  0  0
    4.3179    1.1620    0.0000 C   0  0  0  0  0  0  0  0  0  0  0  0
    4.1100    0.1838    0.0000 C   0  0  0  0  0  0  0  0  0  0  0  0
   14.6681    1.1212    0.0000 C   0  0  0  0  0  0  0  0  0  0  0  0
   14.6681   -0.6109    0.0000 C   0  0  0  0  0  0  0  0  0  0  0  0
    2.9511   -1.1033    0.0000 C   0  0  0  0  0  0  0  0  0  0  0  0
    3.4863   -2.7506    0.0000 C   0  0  0  0  0  0  0  0  0  0  0  0
    4.6453   -1.4634    0.0000 C   0  0  0  0  0  0  0  0  0  0  0  0
    9.7771   -0.0828    0.0000 H   0  0  0  0  0  0  0  0  0  0  0  0
    9.7771   -2.8710    0.0000 H   0  0  0  0  0  0  0  0  0  0  0  0
    9.1709    0.9193    0.0000 H   0  0  0  0  0  0  0  0  0  0  0  0
    6.3692   -0.6669    0.0000 H   0  0  0  0  0  0  0  0  0  0  0  0
   11.3581   -0.0739    0.0000 H   0  0  0  0  0  0  0  0  0  0  0  0
    9.0309    3.4669    0.0000 H   0  0  0  0  0  0  0  0  0  0  0  0
    8.3027    3.1428    0.0000 H   0  0  0  0  0  0  0  0  0  0  0  0
    6.3692   -2.2869    0.0000 H   0  0  0  0  0  0  0  0  0  0  0  0
   13.2757    0.8657    0.0000 H   0  0  0  0  0  0  0  0  0  0  0  0
   12.5855    0.4672    0.0000 H   0  0  0  0  0  0  0  0  0  0  0  0
   11.3581   -2.8799    0.0000 H   0  0  0  0  0  0  0  0  0  0  0  0
   13.7881   -1.4769    0.0000 H   0  0  0  0  0  0  0  0  0  0  0  0
    6.2650   -0.5911    0.0000 H   0  0  0  0  0  0  0  0  0  0  0  0
    5.3979    2.0774    0.0000 H   0  0  0  0  0  0  0  0  0  0  0  0
   12.9781   -2.8799    0.0000 H   0  0  0  0  0  0  0  0  0  0  0  0
    9.7897    2.1498    0.0000 H   0  0  0  0  0  0  0  0  0  0  0  0
   10.4711    2.7016    0.0000 H   0  0  0  0  0  0  0  0  0  0  0  0
    9.9193    3.3830    0.0000 H   0  0  0  0  0  0  0  0  0  0  0  0
    4.7243   -1.0918    0.0000 H   0  0  0  0  0  0  0  0  0  0  0  0
    3.8572    1.5768    0.0000 H   0  0  0  0  0  0  0  0  0  0  0  0
   15.2050    0.8112    0.0000 H   0  0  0  0  0  0  0  0  0  0  0  0
   14.9781    1.6581    0.0000 H   0  0  0  0  0  0  0  0  0  0  0  0
   14.1311    1.4312    0.0000 H   0  0  0  0  0  0  0  0  0  0  0  0
   14.1311   -0.9209    0.0000 H   0  0  0  0  0  0  0  0  0  0  0  0
   14.9781   -1.1478    0.0000 H   0  0  0  0  0  0  0  0  0  0  0  0
   15.2050   -0.3009    0.0000 H   0  0  0  0  0  0  0  0  0  0  0  0
    2.6982    0.2897    0.0000 H   0  0  0  0  0  0  0  0  0  0  0  0
    2.8798   -2.6217    0.0000 H   0  0  0  0  0  0  0  0  0  0  0  0
    3.3574   -3.3571    0.0000 H   0  0  0  0  0  0  0  0  0  0  0  0
    4.0927   -2.8795    0.0000 H   0  0  0  0  0  0  0  0  0  0  0  0
    4.8368   -2.0531    0.0000 H   0  0  0  0  0  0  0  0  0  0  0  0
    5.2349   -1.2719    0.0000 H   0  0  0  0  0  0  0  0  0  0  0  0
    4.4537   -0.8738    0.0000 H   0  0  0  0  0  0  0  0  0  0  0  0
  1 36  2  0  0  0  0
  2 12  1  0  0  0  0
  2 13  1  0  0  0  0
  2 40  1  0  0  0  0
  3  4  1  0  0  0  0
  3 17  1  0  0  0  0
  3 22  1  0  0  0  0
  4 15  2  0  0  0  0
  5 13  2  0  0  0  0
  5 23  1  0  0  0  0
  6 24  1  0  0  0  0
  6 34  1  0  0  0  0
  6 35  1  0  0  0  0
  7 33  1  0  0  0  0
  7 36  1  0  0  0  0
  7 65  1  0  0  0  0
  8 36  1  0  0  0  0
  8 37  1  0  0  0  0
  8 38  1  0  0  0  0
  9 10  2  0  0  0  0
  9 13  1  0  0  0  0
  9 14  1  0  0  0  0
 10 11  1  0  0  0  0
 10 18  1  0  0  0  0
 11 15  1  0  0  0  0
 11 17  2  0  0  0  0
 12 14  2  0  0  0  0
 12 16  1  0  0  0  0
 14 39  1  0  0  0  0
 15 19  1  0  0  0  0
 16 20  1  0  0  0  0
 16 25  2  0  0  0  0
 17 41  1  0  0  0  0
 18 23  2  0  0  0  0
 18 42  1  0  0  0  0
 19 27  2  0  0  0  0
 19 28  1  0  0  0  0
 20 21  2  0  0  0  0
 20 43  1  0  0  0  0
 21 24  1  0  0  0  0
 21 26  1  0  0  0  0
 22 30  1  0  0  0  0
 22 44  1  0  0  0  0
 22 45  1  0  0  0  0
 23 46  1  0  0  0  0
 24 47  1  0  0  0  0
 24 48  1  0  0  0  0
 25 29  1  0  0  0  0
 25 49  1  0  0  0  0
 26 29  2  0  0  0  0
 26 50  1  0  0  0  0
 27 31  1  0  0  0  0
 27 51  1  0  0  0  0
 28 32  2  0  0  0  0
 28 52  1  0  0  0  0
 29 53  1  0  0  0  0
 30 54  1  0  0  0  0
 30 55  1  0  0  0  0
 30 56  1  0  0  0  0
 31 33  2  0  0  0  0
 31 57  1  0  0  0  0
 32 33  1  0  0  0  0
 32 58  1  0  0  0  0
 34 59  1  0  0  0  0
 34 60  1  0  0  0  0
 34 61  1  0  0  0  0
 35 62  1  0  0  0  0
 35 63  1  0  0  0  0
 35 64  1  0  0  0  0
 37 66  1  0  0  0  0
 37 67  1  0  0  0  0
 37 68  1  0  0  0  0
 38 69  1  0  0  0  0
 38 70  1  0  0  0  0
 38 71  1  0  0  0  0
M  END
> <PUBCHEM_COMPOUND_CID>
46885626

> <PUBCHEM_COMPOUND_CANONICALIZED>
1

> <PUBCHEM_CACTVS_COMPLEXITY>
770

> <PUBCHEM_CACTVS_HBOND_ACCEPTOR>
4

> <PUBCHEM_CACTVS_HBOND_DONOR>
2

> <PUBCHEM_CACTVS_ROTATABLE_BOND>
7

> <PUBCHEM_CACTVS_SUBSKEYS>
AAADcfB7oAAAAAAAAAAAAAAAAAAAAWLAAAA8YIAAAAAAAFgB/gAAHgAYAAAADAjBHwQ/8N/JkACqAzZndACShCmxgqAZ2SA4ZJiIKOLA2dGEpAhongLIyCcQgMAOiAACAAAAAAAQAAQAAAAAAAAAAAAAAA==

> <PUBCHEM_IUPAC_OPENEYE_NAME>
3-[4-[4-[2-[3-[(dimethylamino)methyl]phenyl]-1H-pyrrolo[2,3-b]pyridin-4-yl]-1-ethyl-pyrazol-3-yl]phenyl]-1,1-dimethyl-urea

> <PUBCHEM_IUPAC_CAS_NAME>
3-[4-[4-[2-[3-[(dimethylamino)methyl]phenyl]-1H-pyrrolo[2,3-b]pyridin-4-yl]-1-ethyl-3-pyrazolyl]phenyl]-1,1-dimethylurea

> <PUBCHEM_IUPAC_NAME_MARKUP>
3-[4-[4-[2-[3-[(dimethylamino)methyl]phenyl]-1<I>H</I>-pyrrolo[2,3-b]pyridin-4-yl]-1-ethylpyrazol-3-yl]phenyl]-1,1-dimethylurea

> <PUBCHEM_IUPAC_NAME>
3-[4-[4-[2-[3-[(dimethylamino)methyl]phenyl]-1H-pyrrolo[2,3-b]pyridin-4-yl]-1-ethylpyrazol-3-yl]phenyl]-1,1-dimethylurea

> <PUBCHEM_IUPAC_SYSTEMATIC_NAME>
3-[4-[4-[2-[3-[(dimethylamino)methyl]phenyl]-1H-pyrrolo[2,3-b]pyridin-4-yl]-1-ethyl-pyrazol-3-yl]phenyl]-1,1-dimethyl-urea

> <PUBCHEM_IUPAC_TRADITIONAL_NAME>
3-[4-[4-[2-[3-[(dimethylamino)methyl]phenyl]-1H-pyrrolo[2,3-b]pyridin-4-yl]-1-ethyl-pyrazol-3-yl]phenyl]-1,1-dimethyl-urea

> <PUBCHEM_IUPAC_INCHI>
InChI=1S/C30H33N7O/c1-6-37-19-26(28(34-37)21-10-12-23(13-11-21)32-30(38)36(4)5)24-14-15-31-29-25(24)17-27(33-29)22-9-7-8-20(16-22)18-35(2)3/h7-17,19H,6,18H2,1-5H3,(H,31,33)(H,32,38)

> <PUBCHEM_IUPAC_INCHIKEY>
QTBWCSQGBMPECM-UHFFFAOYSA-N

> <PUBCHEM_XLOGP3_AA>
3.9

> <PUBCHEM_EXACT_MASS>
507.27465870

> <PUBCHEM_MOLECULAR_FORMULA>
C30H33N7O

> <PUBCHEM_MOLECULAR_WEIGHT>
507.6

> <PUBCHEM_OPENEYE_CAN_SMILES>
CCN1C=C(C(=N1)C2=CC=C(C=C2)NC(=O)N(C)C)C3=C4C=C(NC4=NC=C3)C5=CC=CC(=C5)CN(C)C

> <PUBCHEM_OPENEYE_ISO_SMILES>
CCN1C=C(C(=N1)C2=CC=C(C=C2)NC(=O)N(C)C)C3=C4C=C(NC4=NC=C3)C5=CC=CC(=C5)CN(C)C

> <PUBCHEM_CACTVS_TPSA>
82.1

> <PUBCHEM_MONOISOTOPIC_WEIGHT>
507.27465870

> <PUBCHEM_TOTAL_CHARGE>
0

> <PUBCHEM_HEAVY_ATOM_COUNT>
38

> <PUBCHEM_ATOM_DEF_STEREO_COUNT>
0

> <PUBCHEM_ATOM_UDEF_STEREO_COUNT>
0

> <PUBCHEM_BOND_DEF_STEREO_COUNT>
0

> <PUBCHEM_BOND_UDEF_STEREO_COUNT>
0

> <PUBCHEM_ISOTOPIC_ATOM_COUNT>
0

> <PUBCHEM_COMPONENT_COUNT>
1

> <PUBCHEM_CACTVS_TAUTO_COUNT>
-1

> <PUBCHEM_COORDINATE_TYPE>
1
5
255

> <PUBCHEM_BONDANNOTATIONS>
10  18  8
11  15  8
11  17  8
12  14  8
16  20  8
16  25  8
18  23  8
19  27  8
19  28  8
2  12  8
2  13  8
20  21  8
21  26  8
25  29  8
26  29  8
27  31  8
28  32  8
3  17  8
3  4  8
31  33  8
32  33  8
4  15  8
5  13  8
5  23  8
9  10  8
9  13  8
9  14  8

$$$$
