MODEL 1
REMARK VINA RESULT:      -6.0      0.000      0.000
REMARK  15 active torsions:
REMARK  status: ('A' for Active; 'I' for Inactive)
REMARK    1  A    between atoms: N_3  and  C_14 
REMARK    2  A    between atoms: N_6  and  C_32 
REMARK    3  A    between atoms: N_6  and  C_35 
REMARK    4  A    between atoms: C_8  and  C_9 
REMARK    5  A    between atoms: C_8  and  C_11 
REMARK    6  A    between atoms: C_9  and  C_22 
REMARK    7  A    between atoms: C_10  and  C_16 
REMARK    8  A    between atoms: C_11  and  C_13 
REMARK    9  A    between atoms: C_11  and  C_15 
REMARK   10  A    between atoms: C_17  and  C_22 
REMARK   11  A    between atoms: C_17  and  C_26 
REMARK   12  A    between atoms: C_18  and  C_26 
REMARK   13  A    between atoms: C_27  and  C_32 
REMARK   14  A    between atoms: C_30  and  C_31 
REMARK   15  A    between atoms: C_31  and  C_32 
ROOT
HETATM    1  N   UNK A          21.590 -22.801   1.452  0.00  0.00     0.000 N 
HETATM    2  N   UNK A          21.254 -23.083  -0.318  0.00  0.00    -0.308 NA
HETATM    3  C   UNK A          20.087 -22.652   0.887  0.00  0.00     0.018 A 
HETATM    4  C   UNK A          20.997 -22.553   2.211  0.00  0.00     0.015 A 
HETATM    5  C   UNK A          21.031 -22.862   0.631  0.00  0.00     0.089 A 
HETATM    6  C   UNK A          20.071 -22.461   1.863  0.00  0.00     0.017 A 
HETATM    7  C   UNK A          20.535 -23.093  -1.012  0.00  0.00     0.128 A 
HETATM    8  H   UNK A          22.200 -22.899   1.484  0.00  0.00     0.000 HD
ENDROOT
BRANCH   4   9
HETATM    9  C   UNK A          21.283 -22.420   3.160  0.00  0.00    -0.017 A 
HETATM   10  C   UNK A          21.923 -21.687   3.391  0.00  0.00     0.005 A 
HETATM   11  C   UNK A          22.209 -21.554   4.340  0.00  0.00    -0.030 A 
HETATM   12  C   UNK A          20.930 -23.021   3.877  0.00  0.00     0.006 A 
HETATM   13  C   UNK A          22.849 -20.821   4.571  0.00  0.00     0.016 A 
HETATM   14  C   UNK A          21.856 -22.154   5.057  0.00  0.00    -0.019 A 
HETATM   15  C   UNK A          21.217 -22.888   4.826  0.00  0.00     0.005 A 
HETATM   16  C   UNK A          22.782 -21.288   6.237  0.00  0.00     0.035 A 
HETATM   17  N   UNK A          23.135 -20.688   5.520  0.00  0.00     0.000 N 
HETATM   18  C   UNK A          23.775 -19.955   5.751  0.00  0.00     0.000 C 
ENDBRANCH   4   9
BRANCH   3  19
HETATM   19  C   UNK A          19.367 -22.661   0.193  0.00  0.00     0.024 A 
HETATM   20  C   UNK A          18.425 -22.875   0.452  0.00  0.00     0.040 A 
HETATM   21  C   UNK A          17.639 -22.910  -0.165  0.00  0.00     0.058 A 
HETATM   22  C   UNK A          19.589 -22.457  -0.761  0.00  0.00     0.039 A 
HETATM   23  C   UNK A          17.657 -22.737  -1.150  0.00  0.00     0.006 A 
HETATM   24  C   UNK A          16.813 -22.797  -1.683  0.00  0.00     0.048 A 
HETATM   25  C   UNK A          16.831 -22.624  -2.668  0.00  0.00     0.033 A 
BRANCH  20  26
HETATM   26  C   UNK A          18.104 -23.092   1.374  0.00  0.00     0.287 A 
HETATM   27  N   UNK A          17.534 -22.333   1.689  0.00  0.00    -0.041 N 
HETATM   28  N   UNK A          17.503 -21.647   0.962  0.00  0.00    -0.115 NA
HETATM   29  C   UNK A          17.076 -22.271   2.576  0.00  0.00     0.678 A 
HETATM   30  C   UNK A          17.169 -23.013   3.239  0.00  0.00     0.025 C 
ENDBRANCH  20  26
BRANCH  24  31
HETATM   31  C   UNK A          17.692 -22.392  -3.119  0.00  0.00     0.031 A 
HETATM   32  C   UNK A          16.902 -22.648  -3.675  0.00  0.00     0.026 A 
HETATM   33  C   UNK A          16.067 -22.979  -3.235  0.00  0.00     0.031 A 
BRANCH  31  34
HETATM   34  N   UNK A          18.527 -22.061  -3.559  0.00  0.00    -0.360 N 
HETATM   35  H   UNK A          19.014 -22.439  -3.625  0.00  0.00     0.162 HD
BRANCH  34  36
HETATM   36  C   UNK A          18.577 -21.120  -3.893  0.00  0.00     0.137 A 
HETATM   37  N   UNK A          18.884 -20.935  -4.827  0.00  0.00     0.000 N 
HETATM   38  C   UNK A          18.934 -19.994  -5.161  0.00  0.00     0.106 A 
HETATM   39  C   UNK A          19.142 -21.694  -5.426  0.00  0.00     0.107 A 
HETATM   40  O   UNK A          18.319 -20.362  -3.294  0.00  0.00    -0.284 OA
ENDBRANCH  34  36
ENDBRANCH  31  34
ENDBRANCH  24  31
ENDBRANCH   3  19
TORSDOF 15
ENDMDL
MODEL 2
REMARK VINA RESULT:      -4.8      3.972      6.493
REMARK  15 active torsions:
REMARK  status: ('A' for Active; 'I' for Inactive)
REMARK    1  A    between atoms: N_3  and  C_14 
REMARK    2  A    between atoms: N_6  and  C_32 
REMARK    3  A    between atoms: N_6  and  C_35 
REMARK    4  A    between atoms: C_8  and  C_9 
REMARK    5  A    between atoms: C_8  and  C_11 
REMARK    6  A    between atoms: C_9  and  C_22 
REMARK    7  A    between atoms: C_10  and  C_16 
REMARK    8  A    between atoms: C_11  and  C_13 
REMARK    9  A    between atoms: C_11  and  C_15 
REMARK   10  A    between atoms: C_17  and  C_22 
REMARK   11  A    between atoms: C_17  and  C_26 
REMARK   12  A    between atoms: C_18  and  C_26 
REMARK   13  A    between atoms: C_27  and  C_32 
REMARK   14  A    between atoms: C_30  and  C_31 
REMARK   15  A    between atoms: C_31  and  C_32 
ROOT
HETATM    1  N   UNK A          17.526 -22.688   6.288  0.00  0.00     0.000 N 
HETATM    2  N   UNK A          15.710 -22.835   6.213  0.00  0.00    -0.308 NA
HETATM    3  C   UNK A          16.722 -22.075   5.031  0.00  0.00     0.018 A 
HETATM    4  C   UNK A          18.186 -22.277   5.670  0.00  0.00     0.015 A 
HETATM    5  C   UNK A          16.619 -22.565   5.897  0.00  0.00     0.089 A 
HETATM    6  C   UNK A          17.692 -21.899   4.895  0.00  0.00     0.017 A 
HETATM    7  C   UNK A          14.903 -22.615   5.664  0.00  0.00     0.128 A 
HETATM    8  H   UNK A          17.655 -22.971   6.824  0.00  0.00     0.000 HD
ENDROOT
BRANCH   4   9
HETATM    9  C   UNK A          19.177 -22.248   5.804  0.00  0.00    -0.017 A 
HETATM   10  C   UNK A          19.661 -21.374   5.765  0.00  0.00     0.005 A 
HETATM   11  C   UNK A          20.652 -21.346   5.899  0.00  0.00    -0.030 A 
HETATM   12  C   UNK A          19.682 -23.093   5.978  0.00  0.00     0.006 A 
HETATM   13  C   UNK A          21.137 -20.472   5.860  0.00  0.00     0.016 A 
HETATM   14  C   UNK A          21.158 -22.191   6.073  0.00  0.00    -0.019 A 
HETATM   15  C   UNK A          20.673 -23.064   6.112  0.00  0.00     0.005 A 
HETATM   16  C   UNK A          22.633 -21.288   6.168  0.00  0.00     0.035 A 
HETATM   17  N   UNK A          22.127 -20.443   5.994  0.00  0.00     0.000 N 
HETATM   18  C   UNK A          22.612 -19.570   5.955  0.00  0.00     0.000 C 
ENDBRANCH   4   9
BRANCH   3  19
HETATM   19  C   UNK A          15.916 -21.855   4.482  0.00  0.00     0.024 A 
HETATM   20  C   UNK A          15.886 -22.106   3.515  0.00  0.00     0.040 A 
HETATM   21  C   UNK A          15.130 -21.930   2.885  0.00  0.00     0.058 A 
HETATM   22  C   UNK A          15.140 -21.384   4.901  0.00  0.00     0.039 A 
HETATM   23  C   UNK A          14.270 -21.473   3.112  0.00  0.00     0.006 A 
HETATM   24  C   UNK A          13.571 -21.344   2.409  0.00  0.00     0.048 A 
HETATM   25  C   UNK A          12.711 -20.887   2.636  0.00  0.00     0.033 A 
BRANCH  20  26
HETATM   26  C   UNK A          16.608 -22.576   3.007  0.00  0.00     0.287 A 
HETATM   27  N   UNK A          16.936 -21.958   2.292  0.00  0.00    -0.041 N 
HETATM   28  N   UNK A          16.418 -21.106   2.359  0.00  0.00    -0.115 NA
HETATM   29  C   UNK A          17.657 -22.158   1.628  0.00  0.00     0.678 A 
HETATM   30  C   UNK A          18.118 -23.045   1.644  0.00  0.00     0.025 C 
ENDBRANCH  20  26
BRANCH  24  31
HETATM   31  C   UNK A          12.550 -20.558   3.567  0.00  0.00     0.031 A 
HETATM   32  C   UNK A          11.772 -21.097   3.246  0.00  0.00     0.026 A 
HETATM   33  C   UNK A          11.893 -21.759   2.506  0.00  0.00     0.031 A 
BRANCH  31  34
HETATM   34  N   UNK A          12.429 -19.896   4.306  0.00  0.00    -0.360 N 
HETATM   35  H   UNK A          12.637 -20.026   4.876  0.00  0.00     0.162 HD
BRANCH  34  36
HETATM   36  C   UNK A          11.973 -19.025   4.127  0.00  0.00     0.137 A 
HETATM   37  N   UNK A          11.323 -18.654   4.791  0.00  0.00     0.000 N 
HETATM   38  C   UNK A          10.867 -17.782   4.613  0.00  0.00     0.106 A 
HETATM   39  C   UNK A          11.131 -19.156   5.635  0.00  0.00     0.107 A 
HETATM   40  O   UNK A          12.166 -18.523   3.284  0.00  0.00    -0.284 OA
ENDBRANCH  34  36
ENDBRANCH  31  34
ENDBRANCH  24  31
ENDBRANCH   3  19
TORSDOF 15
ENDMDL
MODEL 3
REMARK VINA RESULT:      -3.6      2.124      7.457
REMARK  15 active torsions:
REMARK  status: ('A' for Active; 'I' for Inactive)
REMARK    1  A    between atoms: N_3  and  C_14 
REMARK    2  A    between atoms: N_6  and  C_32 
REMARK    3  A    between atoms: N_6  and  C_35 
REMARK    4  A    between atoms: C_8  and  C_9 
REMARK    5  A    between atoms: C_8  and  C_11 
REMARK    6  A    between atoms: C_9  and  C_22 
REMARK    7  A    between atoms: C_10  and  C_16 
REMARK    8  A    between atoms: C_11  and  C_13 
REMARK    9  A    between atoms: C_11  and  C_15 
REMARK   10  A    between atoms: C_17  and  C_22 
REMARK   11  A    between atoms: C_17  and  C_26 
REMARK   12  A    between atoms: C_18  and  C_26 
REMARK   13  A    between atoms: C_27  and  C_32 
REMARK   14  A    between atoms: C_30  and  C_31 
REMARK   15  A    between atoms: C_31  and  C_32 
ROOT
HETATM    1  N   UNK A          19.841 -22.929  -0.876  0.00  0.00     0.000 N 
HETATM    2  N   UNK A          21.024 -23.093   0.502  0.00  0.00    -0.308 NA
HETATM    3  C   UNK A          19.362 -22.623   0.633  0.00  0.00     0.018 A 
HETATM    4  C   UNK A          18.882 -22.669  -0.902  0.00  0.00     0.015 A 
HETATM    5  C   UNK A          20.142 -22.901   0.072  0.00  0.00     0.089 A 
HETATM    6  C   UNK A          18.586 -22.480   0.028  0.00  0.00     0.017 A 
HETATM    7  C   UNK A          21.127 -23.006   1.493  0.00  0.00     0.128 A 
HETATM    8  H   UNK A          20.191 -23.081  -1.364  0.00  0.00     0.000 HD
ENDROOT
BRANCH   4   9
HETATM    9  C   UNK A          18.313 -22.608  -1.722  0.00  0.00    -0.017 A 
HETATM   10  C   UNK A          18.685 -22.209  -2.560  0.00  0.00     0.005 A 
HETATM   11  C   UNK A          18.116 -22.148  -3.381  0.00  0.00    -0.030 A 
HETATM   12  C   UNK A          17.372 -22.947  -1.705  0.00  0.00     0.006 A 
HETATM   13  C   UNK A          18.488 -21.749  -4.218  0.00  0.00     0.016 A 
HETATM   14  C   UNK A          17.175 -22.487  -3.363  0.00  0.00    -0.019 A 
HETATM   15  C   UNK A          16.803 -22.887  -2.525  0.00  0.00     0.005 A 
HETATM   16  C   UNK A          16.978 -22.027  -5.021  0.00  0.00     0.035 A 
HETATM   17  N   UNK A          17.919 -21.688  -5.039  0.00  0.00     0.000 N 
HETATM   18  C   UNK A          18.291 -21.289  -5.877  0.00  0.00     0.000 C 
ENDBRANCH   4   9
BRANCH   3  19
HETATM   19  C   UNK A          19.465 -22.536   1.624  0.00  0.00     0.024 A 
HETATM   20  C   UNK A          18.727 -22.139   2.171  0.00  0.00     0.040 A 
HETATM   21  C   UNK A          18.734 -22.010   3.162  0.00  0.00     0.058 A 
HETATM   22  C   UNK A          20.305 -22.846   2.069  0.00  0.00     0.039 A 
HETATM   23  C   UNK A          19.480 -22.255   3.782  0.00  0.00     0.006 A 
HETATM   24  C   UNK A          19.391 -22.085   4.763  0.00  0.00     0.048 A 
HETATM   25  C   UNK A          20.137 -22.331   5.382  0.00  0.00     0.033 A 
BRANCH  20  26
HETATM   26  C   UNK A          17.853 -21.801   1.821  0.00  0.00     0.287 A 
HETATM   27  N   UNK A          17.127 -22.155   2.411  0.00  0.00    -0.041 N 
HETATM   28  N   UNK A          17.552 -22.712   3.124  0.00  0.00    -0.115 NA
HETATM   29  C   UNK A          16.148 -21.982   2.305  0.00  0.00     0.678 A 
HETATM   30  C   UNK A          15.820 -21.409   1.555  0.00  0.00     0.025 C 
ENDBRANCH  20  26
BRANCH  24  31
HETATM   31  C   UNK A          20.971 -22.746   5.020  0.00  0.00     0.031 A 
HETATM   32  C   UNK A          20.688 -23.071   5.922  0.00  0.00     0.026 A 
HETATM   33  C   UNK A          19.757 -22.904   6.245  0.00  0.00     0.031 A 
BRANCH  31  34
HETATM   34  N   UNK A          21.903 -22.914   4.698  0.00  0.00    -0.360 N 
HETATM   35  H   UNK A          21.997 -23.211   4.162  0.00  0.00     0.162 HD
BRANCH  34  36
HETATM   36  C   UNK A          22.683 -22.602   5.240  0.00  0.00     0.137 A 
HETATM   37  N   UNK A          23.207 -21.801   4.949  0.00  0.00     0.000 N 
HETATM   38  C   UNK A          23.987 -21.489   5.491  0.00  0.00     0.106 A 
HETATM   39  C   UNK A          22.948 -21.312   4.116  0.00  0.00     0.107 A 
HETATM   40  O   UNK A          22.941 -23.092   6.073  0.00  0.00    -0.284 OA
ENDBRANCH  34  36
ENDBRANCH  31  34
ENDBRANCH  24  31
ENDBRANCH   3  19
TORSDOF 15
ENDMDL
MODEL 4
REMARK VINA RESULT:      -3.3      2.611      5.486
REMARK  15 active torsions:
REMARK  status: ('A' for Active; 'I' for Inactive)
REMARK    1  A    between atoms: N_3  and  C_14 
REMARK    2  A    between atoms: N_6  and  C_32 
REMARK    3  A    between atoms: N_6  and  C_35 
REMARK    4  A    between atoms: C_8  and  C_9 
REMARK    5  A    between atoms: C_8  and  C_11 
REMARK    6  A    between atoms: C_9  and  C_22 
REMARK    7  A    between atoms: C_10  and  C_16 
REMARK    8  A    between atoms: C_11  and  C_13 
REMARK    9  A    between atoms: C_11  and  C_15 
REMARK   10  A    between atoms: C_17  and  C_22 
REMARK   11  A    between atoms: C_17  and  C_26 
REMARK   12  A    between atoms: C_18  and  C_26 
REMARK   13  A    between atoms: C_27  and  C_32 
REMARK   14  A    between atoms: C_30  and  C_31 
REMARK   15  A    between atoms: C_31  and  C_32 
ROOT
HETATM    1  N   UNK A          17.674 -22.293  -1.483  0.00  0.00     0.000 N 
HETATM    2  N   UNK A          16.242 -21.976  -2.566  0.00  0.00    -0.308 NA
HETATM    3  C   UNK A          17.849 -22.361  -3.084  0.00  0.00     0.018 A 
HETATM    4  C   UNK A          18.622 -22.518  -1.681  0.00  0.00     0.015 A 
HETATM    5  C   UNK A          17.193 -22.195  -2.348  0.00  0.00     0.089 A 
HETATM    6  C   UNK A          18.730 -22.560  -2.668  0.00  0.00     0.017 A 
HETATM    7  C   UNK A          15.947 -21.923  -3.520  0.00  0.00     0.128 A 
HETATM    8  H   UNK A          17.426 -22.225  -0.919  0.00  0.00     0.000 HD
ENDROOT
BRANCH   4   9
HETATM    9  C   UNK A          19.341 -22.675  -1.004  0.00  0.00    -0.017 A 
HETATM   10  C   UNK A          19.132 -22.615  -0.029  0.00  0.00     0.005 A 
HETATM   11  C   UNK A          19.851 -22.772   0.648  0.00  0.00    -0.030 A 
HETATM   12  C   UNK A          20.270 -22.892  -1.304  0.00  0.00     0.006 A 
HETATM   13  C   UNK A          19.642 -22.712   1.624  0.00  0.00     0.016 A 
HETATM   14  C   UNK A          20.780 -22.989   0.348  0.00  0.00    -0.019 A 
HETATM   15  C   UNK A          20.990 -23.049  -0.627  0.00  0.00     0.005 A 
HETATM   16  C   UNK A          21.290 -23.086   2.001  0.00  0.00     0.035 A 
HETATM   17  N   UNK A          20.361 -22.869   2.300  0.00  0.00     0.000 N 
HETATM   18  C   UNK A          20.152 -22.809   3.276  0.00  0.00     0.000 C 
ENDBRANCH   4   9
BRANCH   3  19
HETATM   19  C   UNK A          17.554 -22.308  -4.038  0.00  0.00     0.024 A 
HETATM   20  C   UNK A          18.173 -21.942  -4.733  0.00  0.00     0.040 A 
HETATM   21  C   UNK A          17.972 -21.849  -5.709  0.00  0.00     0.058 A 
HETATM   22  C   UNK A          16.640 -22.621  -4.297  0.00  0.00     0.039 A 
HETATM   23  C   UNK A          17.117 -22.104  -6.160  0.00  0.00     0.006 A 
HETATM   24  C   UNK A          17.012 -21.971  -7.145  0.00  0.00     0.048 A 
HETATM   25  C   UNK A          16.157 -22.227  -7.596  0.00  0.00     0.033 A 
BRANCH  20  26
HETATM   26  C   UNK A          19.101 -21.606  -4.576  0.00  0.00     0.287 A 
HETATM   27  N   UNK A          19.168 -20.688  -4.966  0.00  0.00    -0.041 N 
HETATM   28  N   UNK A          18.281 -20.457  -5.365  0.00  0.00    -0.115 NA
HETATM   29  C   UNK A          19.979 -20.104  -4.959  0.00  0.00     0.678 A 
HETATM   30  C   UNK A          20.824 -20.427  -4.533  0.00  0.00     0.025 C 
ENDBRANCH  20  26
BRANCH  24  31
HETATM   31  C   UNK A          15.407 -22.616  -7.062  0.00  0.00     0.031 A 
HETATM   32  C   UNK A          15.553 -23.093  -7.928  0.00  0.00     0.026 A 
HETATM   33  C   UNK A          16.429 -23.009  -8.403  0.00  0.00     0.031 A 
BRANCH  31  34
HETATM   34  N   UNK A          14.530 -22.699  -6.587  0.00  0.00    -0.360 N 
HETATM   35  H   UNK A          14.413 -23.199  -6.239  0.00  0.00     0.162 HD
BRANCH  34  36
HETATM   36  C   UNK A          13.844 -21.977  -6.673  0.00  0.00     0.137 A 
HETATM   37  N   UNK A          13.426 -21.583  -5.854  0.00  0.00     0.000 N 
HETATM   38  C   UNK A          12.739 -20.862  -5.941  0.00  0.00     0.106 A 
HETATM   39  C   UNK A          13.695 -21.913  -4.949  0.00  0.00     0.107 A 
HETATM   40  O   UNK A          13.575 -21.649  -7.579  0.00  0.00    -0.284 OA
ENDBRANCH  34  36
ENDBRANCH  31  34
ENDBRANCH  24  31
ENDBRANCH   3  19
TORSDOF 15
ENDMDL
MODEL 5
REMARK VINA RESULT:      -3.3      4.737      7.493
REMARK  15 active torsions:
REMARK  status: ('A' for Active; 'I' for Inactive)
REMARK    1  A    between atoms: N_3  and  C_14 
REMARK    2  A    between atoms: N_6  and  C_32 
REMARK    3  A    between atoms: N_6  and  C_35 
REMARK    4  A    between atoms: C_8  and  C_9 
REMARK    5  A    between atoms: C_8  and  C_11 
REMARK    6  A    between atoms: C_9  and  C_22 
REMARK    7  A    between atoms: C_10  and  C_16 
REMARK    8  A    between atoms: C_11  and  C_13 
REMARK    9  A    between atoms: C_11  and  C_15 
REMARK   10  A    between atoms: C_17  and  C_22 
REMARK   11  A    between atoms: C_17  and  C_26 
REMARK   12  A    between atoms: C_18  and  C_26 
REMARK   13  A    between atoms: C_27  and  C_32 
REMARK   14  A    between atoms: C_30  and  C_31 
REMARK   15  A    between atoms: C_31  and  C_32 
ROOT
HETATM    1  N   UNK A          16.331 -21.176   1.872  0.00  0.00     0.000 N 
HETATM    2  N   UNK A          14.626 -20.531   1.829  0.00  0.00    -0.308 NA
HETATM    3  C   UNK A          15.268 -21.644   2.990  0.00  0.00     0.018 A 
HETATM    4  C   UNK A          16.788 -21.809   2.487  0.00  0.00     0.015 A 
HETATM    5  C   UNK A          15.390 -21.072   2.179  0.00  0.00     0.089 A 
HETATM    6  C   UNK A          16.134 -22.098   3.177  0.00  0.00     0.017 A 
HETATM    7  C   UNK A          13.739 -20.563   2.290  0.00  0.00     0.128 A 
HETATM    8  H   UNK A          16.586 -20.896   1.382  0.00  0.00     0.000 HD
ENDROOT
BRANCH   4   9
HETATM    9  C   UNK A          17.742 -22.103   2.423  0.00  0.00    -0.017 A 
HETATM   10  C   UNK A          18.175 -22.204   1.528  0.00  0.00     0.005 A 
HETATM   11  C   UNK A          19.128 -22.499   1.464  0.00  0.00    -0.030 A 
HETATM   12  C   UNK A          18.262 -22.295   3.255  0.00  0.00     0.006 A 
HETATM   13  C   UNK A          19.561 -22.600   0.568  0.00  0.00     0.016 A 
HETATM   14  C   UNK A          19.649 -22.691   2.295  0.00  0.00    -0.019 A 
HETATM   15  C   UNK A          19.216 -22.590   3.191  0.00  0.00     0.005 A 
HETATM   16  C   UNK A          21.036 -23.087   1.336  0.00  0.00     0.035 A 
HETATM   17  N   UNK A          20.515 -22.894   0.504  0.00  0.00     0.000 N 
HETATM   18  C   UNK A          20.948 -22.996  -0.391  0.00  0.00     0.000 C 
ENDBRANCH   4   9
BRANCH   3  19
HETATM   19  C   UNK A          14.381 -21.676   3.451  0.00  0.00     0.024 A 
HETATM   20  C   UNK A          14.291 -22.142   4.331  0.00  0.00     0.040 A 
HETATM   21  C   UNK A          13.452 -22.228   4.868  0.00  0.00     0.058 A 
HETATM   22  C   UNK A          13.584 -21.240   3.032  0.00  0.00     0.039 A 
HETATM   23  C   UNK A          12.555 -21.862   4.619  0.00  0.00     0.006 A 
HETATM   24  C   UNK A          11.772 -22.001   5.226  0.00  0.00     0.048 A 
HETATM   25  C   UNK A          10.876 -21.635   4.977  0.00  0.00     0.033 A 
BRANCH  20  26
HETATM   26  C   UNK A          15.024 -22.606   4.829  0.00  0.00     0.287 A 
HETATM   27  N   UNK A          15.276 -22.035   5.611  0.00  0.00    -0.041 N 
HETATM   28  N   UNK A          14.698 -21.219   5.596  0.00  0.00    -0.115 NA
HETATM   29  C   UNK A          15.981 -22.244   6.288  0.00  0.00     0.678 A 
HETATM   30  C   UNK A          16.508 -23.090   6.215  0.00  0.00     0.025 C 
ENDBRANCH  20  26
BRANCH  24  31
HETATM   31  C   UNK A          10.762 -21.130   4.121  0.00  0.00     0.031 A 
HETATM   32  C   UNK A          10.174 -21.933   4.026  0.00  0.00     0.026 A 
HETATM   33  C   UNK A          10.385 -22.770   4.530  0.00  0.00     0.031 A 
BRANCH  31  34
HETATM   34  N   UNK A          10.550 -20.293   3.617  0.00  0.00    -0.360 N 
HETATM   35  H   UNK A          10.619 -20.276   3.001  0.00  0.00     0.162 HD
BRANCH  34  36
HETATM   36  C   UNK A          10.228 -19.482   4.106  0.00  0.00     0.137 A 
HETATM   37  N   UNK A          10.614 -18.583   3.895  0.00  0.00     0.000 N 
HETATM   38  C   UNK A          10.291 -17.773   4.384  0.00  0.00     0.106 A 
HETATM   39  C   UNK A          11.322 -18.497   3.194  0.00  0.00     0.107 A 
HETATM   40  O   UNK A           9.519 -19.569   4.806  0.00  0.00    -0.284 OA
ENDBRANCH  34  36
ENDBRANCH  31  34
ENDBRANCH  24  31
ENDBRANCH   3  19
TORSDOF 15
ENDMDL
