@<TRIPOS>MOLECULE
2726
 40 42 0 0 0
SMALL
GASTEIGER

@<TRIPOS>ATOM
      1 CL         -5.0532   -1.3975   -0.9548 Cl      1  UNL1       -0.0835
      2 S          -0.4721    2.1681    1.4743 S.3     1  UNL1       -0.0857
      3 N          -0.0573   -0.0750   -0.6375 N.pl3   1  UNL1       -0.2982
      4 N           2.4307   -2.2659    0.6091 N.3     1  UNL1       -0.3083
      5 C           0.2610   -1.3541   -1.2851 C.3     1  UNL1        0.0185
      6 C           0.1350   -2.5090   -0.2922 C.3     1  UNL1       -0.0240
      7 C           1.0185   -2.3789    0.9524 C.3     1  UNL1       -0.0003
      8 C          -1.3932    0.1236   -0.2059 C.ar    1  UNL1        0.0493
      9 C           0.9781    0.8901   -0.5542 C.ar    1  UNL1        0.0479
     10 C          -1.7119    1.1264    0.7313 C.ar    1  UNL1        0.0342
     11 C           0.8942    1.9689    0.3480 C.ar    1  UNL1        0.0341
     12 C          -2.4653   -0.6413   -0.7153 C.ar    1  UNL1       -0.0209
     13 C           2.1163    0.8396   -1.3884 C.ar    1  UNL1       -0.0393
     14 C          -3.0396    1.3244    1.1501 C.ar    1  UNL1       -0.0448
     15 C           1.9200    2.9282    0.4206 C.ar    1  UNL1       -0.0462
     16 C           2.8939   -3.4755   -0.0735 C.3     1  UNL1       -0.0130
     17 C           3.2350   -2.0201    1.8074 C.3     1  UNL1       -0.0130
     18 C          -3.7837   -0.4370   -0.2993 C.ar    1  UNL1        0.0428
     19 C           3.1306    1.7983   -1.3158 C.ar    1  UNL1       -0.0599
     20 C          -4.0708    0.5448    0.6366 C.ar    1  UNL1       -0.0422
     21 C           3.0338    2.8421   -0.4080 C.ar    1  UNL1       -0.0606
     22 H          -0.3749   -1.5192   -2.1628 H       1  UNL1        0.0468
     23 H           1.2684   -1.4315   -1.6927 H       1  UNL1        0.0468
     24 H           0.3331   -3.4516   -0.8160 H       1  UNL1        0.0293
     25 H          -0.8977   -2.6139    0.0581 H       1  UNL1        0.0293
     26 H           0.8416   -3.2449    1.6045 H       1  UNL1        0.0427
     27 H           0.7000   -1.4981    1.5234 H       1  UNL1        0.0427
     28 H          -2.3024   -1.4085   -1.4674 H       1  UNL1        0.0651
     29 H           2.2447    0.0991   -2.1705 H       1  UNL1        0.0636
     30 H          -3.2848    2.0910    1.8825 H       1  UNL1        0.0630
     31 H           1.8610    3.7555    1.1250 H       1  UNL1        0.0629
     32 H           3.9768   -3.4257   -0.2400 H       1  UNL1        0.0391
     33 H           2.6867   -4.3848    0.5025 H       1  UNL1        0.0391
     34 H           2.4564   -3.5787   -1.0708 H       1  UNL1        0.0391
     35 H           2.9179   -1.0938    2.2997 H       1  UNL1        0.0391
     36 H           4.2898   -1.8865    1.5429 H       1  UNL1        0.0391
     37 H           3.1605   -2.8398    2.5311 H       1  UNL1        0.0391
     38 H           3.9874    1.7329   -1.9802 H       1  UNL1        0.0618
     39 H          -5.0891    0.7186    0.9735 H       1  UNL1        0.0632
     40 H           3.8183    3.5901   -0.3483 H       1  UNL1        0.0618
@<TRIPOS>BOND
     1     1    18    1
     2     2    10    1
     3     2    11    1
     4     3     5    1
     5     3     8    1
     6     3     9    1
     7     4     7    1
     8     4    16    1
     9     4    17    1
    10     5     6    1
    11     5    22    1
    12     5    23    1
    13     6     7    1
    14     6    24    1
    15     6    25    1
    16     7    26    1
    17     7    27    1
    18     8    10   ar
    19     8    12   ar
    20     9    11   ar
    21     9    13   ar
    22    10    14   ar
    23    11    15   ar
    24    12    18   ar
    25    12    28    1
    26    13    19   ar
    27    13    29    1
    28    14    20   ar
    29    14    30    1
    30    15    21   ar
    31    15    31    1
    32    16    32    1
    33    16    33    1
    34    16    34    1
    35    17    35    1
    36    17    36    1
    37    17    37    1
    38    18    20   ar
    39    19    21   ar
    40    19    38    1
    41    20    39    1
    42    21    40    1
