REMARK  4 active torsions:
REMARK  status: ('A' for Active; 'I' for Inactive)
REMARK    1  A    between atoms: N_3  and  C_5 
REMARK    2  A    between atoms: N_4  and  C_7 
REMARK    3  A    between atoms: C_5  and  C_6 
REMARK    4  A    between atoms: C_6  and  C_7 
ROOT
ATOM      1 CL   BRD d   1      -5.053  -1.397  -0.955  0.00  0.00    -0.084 Cl
ATOM      2  S   BRD d   1      -0.472   2.168   1.474  0.00  0.00    -0.086 SA
ATOM      3  N   BRD d   1      -0.057  -0.075  -0.637  0.00  0.00    -0.298 N 
ATOM      4  C   BRD d   1      -1.393   0.124  -0.206  0.00  0.00     0.049 A 
ATOM      5  C   BRD d   1       0.978   0.890  -0.554  0.00  0.00     0.048 A 
ATOM      6  C   BRD d   1      -1.712   1.126   0.731  0.00  0.00     0.034 A 
ATOM      7  C   BRD d   1       0.894   1.969   0.348  0.00  0.00     0.034 A 
ATOM      8  C   BRD d   1      -2.465  -0.641  -0.715  0.00  0.00     0.044 A 
ATOM      9  C   BRD d   1       2.116   0.840  -1.388  0.00  0.00     0.024 A 
ATOM     10  C   BRD d   1      -3.040   1.324   1.150  0.00  0.00     0.018 A 
ATOM     11  C   BRD d   1       1.920   2.928   0.421  0.00  0.00     0.017 A 
ATOM     12  C   BRD d   1      -3.784  -0.437  -0.299  0.00  0.00     0.043 A 
ATOM     13  C   BRD d   1       3.131   1.798  -1.316  0.00  0.00     0.002 A 
ATOM     14  C   BRD d   1      -4.071   0.545   0.637  0.00  0.00     0.021 A 
ATOM     15  C   BRD d   1       3.034   2.842  -0.408  0.00  0.00     0.001 A 
ENDROOT
BRANCH   3  16
ATOM     16  C   BRD d   1       0.261  -1.354  -1.285  0.00  0.00     0.112 C 
BRANCH  16  17
ATOM     17  C   BRD d   1       0.135  -2.509  -0.292  0.00  0.00     0.035 C 
BRANCH  17  18
ATOM     18  C   BRD d   1       1.018  -2.379   0.952  0.00  0.00     0.085 C 
BRANCH  18  19
ATOM     19  N   BRD d   1       2.431  -2.266   0.609  0.00  0.00    -0.308 N 
ATOM     20  C   BRD d   1       2.894  -3.475  -0.073  0.00  0.00     0.104 C 
ATOM     21  C   BRD d   1       3.235  -2.020   1.807  0.00  0.00     0.104 C 
ENDBRANCH  18  19
ENDBRANCH  17  18
ENDBRANCH  16  17
ENDBRANCH   3  16
TORSDOF 4
