MODEL 1
REMARK VINA RESULT:      -6.2      0.000      0.000
REMARK  4 active torsions:
REMARK  status: ('A' for Active; 'I' for Inactive)
REMARK    1  A    between atoms: N_3  and  C_5 
REMARK    2  A    between atoms: N_4  and  C_7 
REMARK    3  A    between atoms: C_5  and  C_6 
REMARK    4  A    between atoms: C_6  and  C_7 
ROOT
ATOM      1 CL   BRD d   1       1.109  12.620  36.074  0.00  0.00    -0.084 Cl
ATOM      2  S   BRD d   1       3.572   7.209  38.135  0.00  0.00    -0.086 SA
ATOM      3  N   BRD d   1       5.108   9.903  37.927  0.00  0.00    -0.298 N 
ATOM      4  C   BRD d   1       3.754   9.933  37.507  0.00  0.00     0.049 A 
ATOM      5  C   BRD d   1       5.666   8.944  38.809  0.00  0.00     0.048 A 
ATOM      6  C   BRD d   1       2.947   8.781  37.575  0.00  0.00     0.034 A 
ATOM      7  C   BRD d   1       5.048   7.693  39.007  0.00  0.00     0.034 A 
ATOM      8  C   BRD d   1       3.143  11.116  37.038  0.00  0.00     0.044 A 
ATOM      9  C   BRD d   1       6.837   9.204  39.553  0.00  0.00     0.024 A 
ATOM     10  C   BRD d   1       1.602   8.818  37.165  0.00  0.00     0.018 A 
ATOM     11  C   BRD d   1       5.602   6.748  39.888  0.00  0.00     0.017 A 
ATOM     12  C   BRD d   1       1.804  11.149  36.635  0.00  0.00     0.043 A 
ATOM     13  C   BRD d   1       7.382   8.264  40.432  0.00  0.00     0.002 A 
ATOM     14  C   BRD d   1       1.034   9.998  36.696  0.00  0.00     0.021 A 
ATOM     15  C   BRD d   1       6.764   7.033  40.598  0.00  0.00     0.001 A 
ENDROOT
BRANCH   3  16
ATOM     16  C   BRD d   1       5.982  10.991  37.469  0.00  0.00     0.112 C 
BRANCH  16  17
ATOM     17  C   BRD d   1       6.732  10.584  36.201  0.00  0.00     0.035 C 
BRANCH  17  18
ATOM     18  C   BRD d   1       8.257  10.561  36.342  0.00  0.00     0.085 C 
BRANCH  18  19
ATOM     19  N   BRD d   1       8.842   9.365  35.748  0.00  0.00    -0.308 N 
ATOM     20  C   BRD d   1       8.076   8.945  34.574  0.00  0.00     0.104 C 
ATOM     21  C   BRD d   1       8.905   8.279  36.728  0.00  0.00     0.104 C 
ENDBRANCH  18  19
ENDBRANCH  17  18
ENDBRANCH  16  17
ENDBRANCH   3  16
TORSDOF 4
ENDMDL
MODEL 2
REMARK VINA RESULT:      -6.1      2.185      4.468
REMARK  4 active torsions:
REMARK  status: ('A' for Active; 'I' for Inactive)
REMARK    1  A    between atoms: N_3  and  C_5 
REMARK    2  A    between atoms: N_4  and  C_7 
REMARK    3  A    between atoms: C_5  and  C_6 
REMARK    4  A    between atoms: C_6  and  C_7 
ROOT
ATOM      1 CL   BRD d   1      -0.119   9.298  36.565  0.00  0.00    -0.084 Cl
ATOM      2  S   BRD d   1       5.526  11.842  37.688  0.00  0.00    -0.086 SA
ATOM      3  N   BRD d   1       4.890   8.801  37.776  0.00  0.00    -0.298 N 
ATOM      4  C   BRD d   1       3.797   9.648  37.465  0.00  0.00     0.049 A 
ATOM      5  C   BRD d   1       6.257   9.139  37.607  0.00  0.00     0.048 A 
ATOM      6  C   BRD d   1       3.964  11.044  37.373  0.00  0.00     0.034 A 
ATOM      7  C   BRD d   1       6.668  10.484  37.529  0.00  0.00     0.034 A 
ATOM      8  C   BRD d   1       2.507   9.139  37.200  0.00  0.00     0.044 A 
ATOM      9  C   BRD d   1       7.260   8.154  37.475  0.00  0.00     0.024 A 
ATOM     10  C   BRD d   1       2.878  11.880  37.057  0.00  0.00     0.018 A 
ATOM     11  C   BRD d   1       8.023  10.814  37.354  0.00  0.00     0.017 A 
ATOM     12  C   BRD d   1       1.432   9.974  36.881  0.00  0.00     0.043 A 
ATOM     13  C   BRD d   1       8.606   8.486  37.296  0.00  0.00     0.002 A 
ATOM     14  C   BRD d   1       1.617  11.346  36.813  0.00  0.00     0.021 A 
ATOM     15  C   BRD d   1       8.988   9.818  37.238  0.00  0.00     0.001 A 
ENDROOT
BRANCH   3  16
ATOM     16  C   BRD d   1       4.582   7.442  38.240  0.00  0.00     0.112 C 
BRANCH  16  17
ATOM     17  C   BRD d   1       5.026   7.252  39.690  0.00  0.00     0.035 C 
BRANCH  17  18
ATOM     18  C   BRD d   1       5.689   5.903  39.982  0.00  0.00     0.085 C 
BRANCH  18  19
ATOM     19  N   BRD d   1       5.302   5.377  41.286  0.00  0.00    -0.308 N 
ATOM     20  C   BRD d   1       6.419   5.463  42.228  0.00  0.00     0.104 C 
ATOM     21  C   BRD d   1       4.844   3.992  41.168  0.00  0.00     0.104 C 
ENDBRANCH  18  19
ENDBRANCH  17  18
ENDBRANCH  16  17
ENDBRANCH   3  16
TORSDOF 4
ENDMDL
MODEL 3
REMARK VINA RESULT:      -5.8      3.269      6.212
REMARK  4 active torsions:
REMARK  status: ('A' for Active; 'I' for Inactive)
REMARK    1  A    between atoms: N_3  and  C_5 
REMARK    2  A    between atoms: N_4  and  C_7 
REMARK    3  A    between atoms: C_5  and  C_6 
REMARK    4  A    between atoms: C_6  and  C_7 
ROOT
ATOM      1 CL   BRD d   1      -3.139   9.357  36.907  0.00  0.00    -0.084 Cl
ATOM      2  S   BRD d   1       3.042   8.341  37.505  0.00  0.00    -0.086 SA
ATOM      3  N   BRD d   1       1.750  11.050  36.700  0.00  0.00    -0.298 N 
ATOM      4  C   BRD d   1       0.846   9.983  36.933  0.00  0.00     0.049 A 
ATOM      5  C   BRD d   1       3.069  11.127  37.213  0.00  0.00     0.048 A 
ATOM      6  C   BRD d   1       1.308   8.712  37.326  0.00  0.00     0.034 A 
ATOM      7  C   BRD d   1       3.752   9.969  37.635  0.00  0.00     0.034 A 
ATOM      8  C   BRD d   1      -0.552  10.148  36.818  0.00  0.00     0.044 A 
ATOM      9  C   BRD d   1       3.744  12.358  37.361  0.00  0.00     0.024 A 
ATOM     10  C   BRD d   1       0.407   7.659  37.562  0.00  0.00     0.018 A 
ATOM     11  C   BRD d   1       5.058  10.051  38.150  0.00  0.00     0.017 A 
ATOM     12  C   BRD d   1      -1.444   9.099  37.059  0.00  0.00     0.043 A 
ATOM     13  C   BRD d   1       5.040  12.436  37.879  0.00  0.00     0.002 A 
ATOM     14  C   BRD d   1      -0.964   7.852  37.428  0.00  0.00     0.021 A 
ATOM     15  C   BRD d   1       5.699  11.280  38.271  0.00  0.00     0.001 A 
ENDROOT
BRANCH   3  16
ATOM     16  C   BRD d   1       1.257  12.198  35.928  0.00  0.00     0.112 C 
BRANCH  16  17
ATOM     17  C   BRD d   1       0.232  12.993  36.736  0.00  0.00     0.035 C 
BRANCH  17  18
ATOM     18  C   BRD d   1      -0.968  13.493  35.927  0.00  0.00     0.085 C 
BRANCH  18  19
ATOM     19  N   BRD d   1      -2.127  12.620  36.073  0.00  0.00    -0.308 N 
ATOM     20  C   BRD d   1      -2.684  12.280  34.763  0.00  0.00     0.104 C 
ATOM     21  C   BRD d   1      -3.148  13.252  36.910  0.00  0.00     0.104 C 
ENDBRANCH  18  19
ENDBRANCH  17  18
ENDBRANCH  16  17
ENDBRANCH   3  16
TORSDOF 4
ENDMDL
MODEL 4
REMARK VINA RESULT:      -5.7     21.923     24.109
REMARK  4 active torsions:
REMARK  status: ('A' for Active; 'I' for Inactive)
REMARK    1  A    between atoms: N_3  and  C_5 
REMARK    2  A    between atoms: N_4  and  C_7 
REMARK    3  A    between atoms: C_5  and  C_6 
REMARK    4  A    between atoms: C_6  and  C_7 
ROOT
ATOM      1 CL   BRD d   1      -4.174  31.755  26.314  0.00  0.00    -0.084 Cl
ATOM      2  S   BRD d   1      -7.558  26.743  24.576  0.00  0.00    -0.086 SA
ATOM      3  N   BRD d   1      -4.486  26.745  25.047  0.00  0.00    -0.298 N 
ATOM      4  C   BRD d   1      -5.138  27.989  25.239  0.00  0.00     0.049 A 
ATOM      5  C   BRD d   1      -5.117  25.477  25.108  0.00  0.00     0.048 A 
ATOM      6  C   BRD d   1      -6.532  28.111  25.078  0.00  0.00     0.034 A 
ATOM      7  C   BRD d   1      -6.509  25.349  24.935  0.00  0.00     0.034 A 
ATOM      8  C   BRD d   1      -4.435  29.149  25.632  0.00  0.00     0.044 A 
ATOM      9  C   BRD d   1      -4.395  24.295  25.380  0.00  0.00     0.024 A 
ATOM     10  C   BRD d   1      -7.175  29.346  25.276  0.00  0.00     0.018 A 
ATOM     11  C   BRD d   1      -7.131  24.090  25.004  0.00  0.00     0.017 A 
ATOM     12  C   BRD d   1      -5.080  30.373  25.832  0.00  0.00     0.043 A 
ATOM     13  C   BRD d   1      -5.017  23.045  25.453  0.00  0.00     0.002 A 
ATOM     14  C   BRD d   1      -6.451  30.472  25.652  0.00  0.00     0.021 A 
ATOM     15  C   BRD d   1      -6.387  22.943  25.262  0.00  0.00     0.001 A 
ENDROOT
BRANCH   3  16
ATOM     16  C   BRD d   1      -3.032  26.768  24.840  0.00  0.00     0.112 C 
BRANCH  16  17
ATOM     17  C   BRD d   1      -2.700  26.908  23.355  0.00  0.00     0.035 C 
BRANCH  17  18
ATOM     18  C   BRD d   1      -2.195  25.623  22.691  0.00  0.00     0.085 C 
BRANCH  18  19
ATOM     19  N   BRD d   1      -3.257  24.925  21.976  0.00  0.00    -0.308 N 
ATOM     20  C   BRD d   1      -3.001  23.484  21.952  0.00  0.00     0.104 C 
ATOM     21  C   BRD d   1      -3.387  25.440  20.613  0.00  0.00     0.104 C 
ENDBRANCH  18  19
ENDBRANCH  17  18
ENDBRANCH  16  17
ENDBRANCH   3  16
TORSDOF 4
ENDMDL
MODEL 5
REMARK VINA RESULT:      -5.7     21.937     24.865
REMARK  4 active torsions:
REMARK  status: ('A' for Active; 'I' for Inactive)
REMARK    1  A    between atoms: N_3  and  C_5 
REMARK    2  A    between atoms: N_4  and  C_7 
REMARK    3  A    between atoms: C_5  and  C_6 
REMARK    4  A    between atoms: C_6  and  C_7 
ROOT
ATOM      1 CL   BRD d   1      -1.772  20.269  20.520  0.00  0.00    -0.084 Cl
ATOM      2  S   BRD d   1      -3.614  25.973  18.607  0.00  0.00    -0.086 SA
ATOM      3  N   BRD d   1      -3.371  25.079  21.574  0.00  0.00    -0.298 N 
ATOM      4  C   BRD d   1      -3.042  24.096  20.607  0.00  0.00     0.049 A 
ATOM      5  C   BRD d   1      -3.355  26.479  21.351  0.00  0.00     0.048 A 
ATOM      6  C   BRD d   1      -3.091  24.387  19.230  0.00  0.00     0.034 A 
ATOM      7  C   BRD d   1      -3.435  27.007  20.047  0.00  0.00     0.034 A 
ATOM      8  C   BRD d   1      -2.619  22.799  20.972  0.00  0.00     0.044 A 
ATOM      9  C   BRD d   1      -3.224  27.403  22.410  0.00  0.00     0.024 A 
ATOM     10  C   BRD d   1      -2.757  23.411  18.274  0.00  0.00     0.018 A 
ATOM     11  C   BRD d   1      -3.411  28.396  19.831  0.00  0.00     0.017 A 
ATOM     12  C   BRD d   1      -2.284  21.833  20.018  0.00  0.00     0.043 A 
ATOM     13  C   BRD d   1      -3.196  28.783  22.190  0.00  0.00     0.002 A 
ATOM     14  C   BRD d   1      -2.355  22.139  18.668  0.00  0.00     0.021 A 
ATOM     15  C   BRD d   1      -3.292  29.280  20.899  0.00  0.00     0.001 A 
ENDROOT
BRANCH   3  16
ATOM     16  C   BRD d   1      -3.682  24.614  22.932  0.00  0.00     0.112 C 
BRANCH  16  17
ATOM     17  C   BRD d   1      -5.187  24.679  23.194  0.00  0.00     0.035 C 
BRANCH  17  18
ATOM     18  C   BRD d   1      -5.570  25.203  24.581  0.00  0.00     0.085 C 
BRANCH  18  19
ATOM     19  N   BRD d   1      -6.420  24.264  25.303  0.00  0.00    -0.308 N 
ATOM     20  C   BRD d   1      -5.645  23.107  25.753  0.00  0.00     0.104 C 
ATOM     21  C   BRD d   1      -7.539  23.830  24.464  0.00  0.00     0.104 C 
ENDBRANCH  18  19
ENDBRANCH  17  18
ENDBRANCH  16  17
ENDBRANCH   3  16
TORSDOF 4
ENDMDL
MODEL 6
REMARK VINA RESULT:      -5.6     22.092     24.404
REMARK  4 active torsions:
REMARK  status: ('A' for Active; 'I' for Inactive)
REMARK    1  A    between atoms: N_3  and  C_5 
REMARK    2  A    between atoms: N_4  and  C_7 
REMARK    3  A    between atoms: C_5  and  C_6 
REMARK    4  A    between atoms: C_6  and  C_7 
ROOT
ATOM      1 CL   BRD d   1      -3.734  28.867  23.648  0.00  0.00    -0.084 Cl
ATOM      2  S   BRD d   1      -4.556  22.665  22.977  0.00  0.00    -0.086 SA
ATOM      3  N   BRD d   1      -3.175  24.516  20.897  0.00  0.00    -0.298 N 
ATOM      4  C   BRD d   1      -3.651  25.156  22.070  0.00  0.00     0.049 A 
ATOM      5  C   BRD d   1      -2.870  23.136  20.789  0.00  0.00     0.048 A 
ATOM      6  C   BRD d   1      -4.275  24.421  23.096  0.00  0.00     0.034 A 
ATOM      7  C   BRD d   1      -3.416  22.200  21.689  0.00  0.00     0.034 A 
ATOM      8  C   BRD d   1      -3.495  26.544  22.281  0.00  0.00     0.044 A 
ATOM      9  C   BRD d   1      -1.985  22.640  19.807  0.00  0.00     0.024 A 
ATOM     10  C   BRD d   1      -4.739  25.059  24.260  0.00  0.00     0.018 A 
ATOM     11  C   BRD d   1      -3.104  20.833  21.582  0.00  0.00     0.017 A 
ATOM     12  C   BRD d   1      -3.954  27.173  23.441  0.00  0.00     0.043 A 
ATOM     13  C   BRD d   1      -1.674  21.281  19.708  0.00  0.00     0.002 A 
ATOM     14  C   BRD d   1      -4.580  26.430  24.431  0.00  0.00     0.021 A 
ATOM     15  C   BRD d   1      -2.237  20.376  20.595  0.00  0.00     0.001 A 
ENDROOT
BRANCH   3  16
ATOM     16  C   BRD d   1      -2.908  25.362  19.726  0.00  0.00     0.112 C 
BRANCH  16  17
ATOM     17  C   BRD d   1      -4.072  25.299  18.738  0.00  0.00     0.035 C 
BRANCH  17  18
ATOM     18  C   BRD d   1      -3.656  25.116  17.275  0.00  0.00     0.085 C 
BRANCH  18  19
ATOM     19  N   BRD d   1      -4.566  24.233  16.556  0.00  0.00    -0.308 N 
ATOM     20  C   BRD d   1      -5.958  24.608  16.809  0.00  0.00     0.104 C 
ATOM     21  C   BRD d   1      -4.340  22.838  16.936  0.00  0.00     0.104 C 
ENDBRANCH  18  19
ENDBRANCH  17  18
ENDBRANCH  16  17
ENDBRANCH   3  16
TORSDOF 4
ENDMDL
MODEL 7
REMARK VINA RESULT:      -5.5     23.458     25.934
REMARK  4 active torsions:
REMARK  status: ('A' for Active; 'I' for Inactive)
REMARK    1  A    between atoms: N_3  and  C_5 
REMARK    2  A    between atoms: N_4  and  C_7 
REMARK    3  A    between atoms: C_5  and  C_6 
REMARK    4  A    between atoms: C_6  and  C_7 
ROOT
ATOM      1 CL   BRD d   1      -6.397  23.200  26.168  0.00  0.00    -0.084 Cl
ATOM      2  S   BRD d   1      -6.856  27.219  21.348  0.00  0.00    -0.086 SA
ATOM      3  N   BRD d   1      -4.797  27.441  23.666  0.00  0.00    -0.298 N 
ATOM      4  C   BRD d   1      -5.690  26.342  23.740  0.00  0.00     0.049 A 
ATOM      5  C   BRD d   1      -4.464  28.142  22.479  0.00  0.00     0.048 A 
ATOM      6  C   BRD d   1      -6.654  26.121  22.737  0.00  0.00     0.034 A 
ATOM      7  C   BRD d   1      -5.307  28.099  21.351  0.00  0.00     0.034 A 
ATOM      8  C   BRD d   1      -5.636  25.404  24.794  0.00  0.00     0.044 A 
ATOM      9  C   BRD d   1      -3.268  28.881  22.357  0.00  0.00     0.024 A 
ATOM     10  C   BRD d   1      -7.533  25.026  22.812  0.00  0.00     0.018 A 
ATOM     11  C   BRD d   1      -4.969  28.790  20.173  0.00  0.00     0.017 A 
ATOM     12  C   BRD d   1      -6.509  24.314  24.861  0.00  0.00     0.043 A 
ATOM     13  C   BRD d   1      -2.933  29.562  21.184  0.00  0.00     0.002 A 
ATOM     14  C   BRD d   1      -7.461  24.127  23.870  0.00  0.00     0.021 A 
ATOM     15  C   BRD d   1      -3.786  29.518  20.091  0.00  0.00     0.001 A 
ENDROOT
BRANCH   3  16
ATOM     16  C   BRD d   1      -4.108  27.837  24.901  0.00  0.00     0.112 C 
BRANCH  16  17
ATOM     17  C   BRD d   1      -4.935  28.862  25.676  0.00  0.00     0.035 C 
BRANCH  17  18
ATOM     18  C   BRD d   1      -4.470  30.311  25.511  0.00  0.00     0.085 C 
BRANCH  18  19
ATOM     19  N   BRD d   1      -5.477  31.263  25.967  0.00  0.00    -0.308 N 
ATOM     20  C   BRD d   1      -4.865  32.308  26.787  0.00  0.00     0.104 C 
ATOM     21  C   BRD d   1      -6.530  30.579  26.719  0.00  0.00     0.104 C 
ENDBRANCH  18  19
ENDBRANCH  17  18
ENDBRANCH  16  17
ENDBRANCH   3  16
TORSDOF 4
ENDMDL
MODEL 8
REMARK VINA RESULT:      -5.5     24.370     27.246
REMARK  4 active torsions:
REMARK  status: ('A' for Active; 'I' for Inactive)
REMARK    1  A    between atoms: N_3  and  C_5 
REMARK    2  A    between atoms: N_4  and  C_7 
REMARK    3  A    between atoms: C_5  and  C_6 
REMARK    4  A    between atoms: C_6  and  C_7 
ROOT
ATOM      1 CL   BRD d   1      -7.521  24.329  23.778  0.00  0.00    -0.084 Cl
ATOM      2  S   BRD d   1      -4.495  29.567  25.510  0.00  0.00    -0.086 SA
ATOM      3  N   BRD d   1      -7.571  29.148  25.671  0.00  0.00    -0.298 N 
ATOM      4  C   BRD d   1      -6.828  28.057  25.154  0.00  0.00     0.049 A 
ATOM      5  C   BRD d   1      -7.046  30.171  26.500  0.00  0.00     0.048 A 
ATOM      6  C   BRD d   1      -5.424  28.117  25.053  0.00  0.00     0.034 A 
ATOM      7  C   BRD d   1      -5.663  30.440  26.533  0.00  0.00     0.034 A 
ATOM      8  C   BRD d   1      -7.448  26.854  24.751  0.00  0.00     0.044 A 
ATOM      9  C   BRD d   1      -7.868  30.939  27.352  0.00  0.00     0.024 A 
ATOM     10  C   BRD d   1      -4.691  27.028  24.546  0.00  0.00     0.018 A 
ATOM     11  C   BRD d   1      -5.147  31.451  27.363  0.00  0.00     0.017 A 
ATOM     12  C   BRD d   1      -6.714  25.773  24.252  0.00  0.00     0.043 A 
ATOM     13  C   BRD d   1      -7.350  31.939  28.180  0.00  0.00     0.002 A 
ATOM     14  C   BRD d   1      -5.334  25.862  24.147  0.00  0.00     0.021 A 
ATOM     15  C   BRD d   1      -5.988  32.197  28.183  0.00  0.00     0.001 A 
ENDROOT
BRANCH   3  16
ATOM     16  C   BRD d   1      -9.011  29.182  25.384  0.00  0.00     0.112 C 
BRANCH  16  17
ATOM     17  C   BRD d   1      -9.298  30.053  24.161  0.00  0.00     0.035 C 
BRANCH  17  18
ATOM     18  C   BRD d   1     -10.625  30.814  24.219  0.00  0.00     0.085 C 
BRANCH  18  19
ATOM     19  N   BRD d   1     -11.284  30.862  22.919  0.00  0.00    -0.308 N 
ATOM     20  C   BRD d   1     -10.907  29.705  22.107  0.00  0.00     0.104 C 
ATOM     21  C   BRD d   1     -10.952  32.104  22.218  0.00  0.00     0.104 C 
ENDBRANCH  18  19
ENDBRANCH  17  18
ENDBRANCH  16  17
ENDBRANCH   3  16
TORSDOF 4
ENDMDL
MODEL 9
REMARK VINA RESULT:      -5.4     23.958     26.816
REMARK  4 active torsions:
REMARK  status: ('A' for Active; 'I' for Inactive)
REMARK    1  A    between atoms: N_3  and  C_5 
REMARK    2  A    between atoms: N_4  and  C_7 
REMARK    3  A    between atoms: C_5  and  C_6 
REMARK    4  A    between atoms: C_6  and  C_7 
ROOT
ATOM      1 CL   BRD d   1     -10.617  29.429  20.506  0.00  0.00    -0.084 Cl
ATOM      2  S   BRD d   1      -9.080  30.791  26.454  0.00  0.00    -0.086 SA
ATOM      3  N   BRD d   1      -7.375  29.050  24.525  0.00  0.00    -0.298 N 
ATOM      4  C   BRD d   1      -8.589  29.550  23.991  0.00  0.00     0.049 A 
ATOM      5  C   BRD d   1      -6.679  29.608  25.627  0.00  0.00     0.048 A 
ATOM      6  C   BRD d   1      -9.438  30.370  24.760  0.00  0.00     0.034 A 
ATOM      7  C   BRD d   1      -7.338  30.435  26.558  0.00  0.00     0.034 A 
ATOM      8  C   BRD d   1      -8.989  29.282  22.663  0.00  0.00     0.044 A 
ATOM      9  C   BRD d   1      -5.297  29.396  25.824  0.00  0.00     0.024 A 
ATOM     10  C   BRD d   1     -10.638  30.868  24.223  0.00  0.00     0.018 A 
ATOM     11  C   BRD d   1      -6.641  30.992  27.645  0.00  0.00     0.017 A 
ATOM     12  C   BRD d   1     -10.181  29.784  22.132  0.00  0.00     0.043 A 
ATOM     13  C   BRD d   1      -4.608  29.956  26.903  0.00  0.00     0.002 A 
ATOM     14  C   BRD d   1     -11.008  30.576  22.915  0.00  0.00     0.021 A 
ATOM     15  C   BRD d   1      -5.281  30.753  27.817  0.00  0.00     0.001 A 
ENDROOT
BRANCH   3  16
ATOM     16  C   BRD d   1      -6.752  27.910  23.839  0.00  0.00     0.112 C 
BRANCH  16  17
ATOM     17  C   BRD d   1      -7.149  26.595  24.508  0.00  0.00     0.035 C 
BRANCH  17  18
ATOM     18  C   BRD d   1      -5.991  25.617  24.727  0.00  0.00     0.085 C 
BRANCH  18  19
ATOM     19  N   BRD d   1      -6.370  24.244  24.416  0.00  0.00    -0.308 N 
ATOM     20  C   BRD d   1      -7.610  24.214  23.640  0.00  0.00     0.104 C 
ATOM     21  C   BRD d   1      -6.521  23.460  25.643  0.00  0.00     0.104 C 
ENDBRANCH  18  19
ENDBRANCH  17  18
ENDBRANCH  16  17
ENDBRANCH   3  16
TORSDOF 4
ENDMDL
MODEL 10
REMARK VINA RESULT:      -5.4     22.534     24.770
REMARK  4 active torsions:
REMARK  status: ('A' for Active; 'I' for Inactive)
REMARK    1  A    between atoms: N_3  and  C_5 
REMARK    2  A    between atoms: N_4  and  C_7 
REMARK    3  A    between atoms: C_5  and  C_6 
REMARK    4  A    between atoms: C_6  and  C_7 
ROOT
ATOM      1 CL   BRD d   1      -4.611  29.283  19.291  0.00  0.00    -0.084 Cl
ATOM      2  S   BRD d   1      -1.498  23.941  18.121  0.00  0.00    -0.086 SA
ATOM      3  N   BRD d   1      -3.047  24.565  20.742  0.00  0.00    -0.298 N 
ATOM      4  C   BRD d   1      -3.058  25.590  19.763  0.00  0.00     0.049 A 
ATOM      5  C   BRD d   1      -2.807  23.192  20.482  0.00  0.00     0.048 A 
ATOM      6  C   BRD d   1      -2.410  25.418  18.524  0.00  0.00     0.034 A 
ATOM      7  C   BRD d   1      -2.136  22.781  19.314  0.00  0.00     0.034 A 
ATOM      8  C   BRD d   1      -3.740  26.810  19.964  0.00  0.00     0.044 A 
ATOM      9  C   BRD d   1      -3.257  22.176  21.353  0.00  0.00     0.024 A 
ATOM     10  C   BRD d   1      -2.430  26.435  17.553  0.00  0.00     0.018 A 
ATOM     11  C   BRD d   1      -1.907  21.418  19.056  0.00  0.00     0.017 A 
ATOM     12  C   BRD d   1      -3.761  27.816  18.994  0.00  0.00     0.043 A 
ATOM     13  C   BRD d   1      -3.033  20.822  21.091  0.00  0.00     0.002 A 
ATOM     14  C   BRD d   1      -3.102  27.629  17.788  0.00  0.00     0.021 A 
ATOM     15  C   BRD d   1      -2.354  20.443  19.942  0.00  0.00     0.001 A 
ENDROOT
BRANCH   3  16
ATOM     16  C   BRD d   1      -3.382  24.944  22.121  0.00  0.00     0.112 C 
BRANCH  16  17
ATOM     17  C   BRD d   1      -2.165  25.540  22.828  0.00  0.00     0.035 C 
BRANCH  17  18
ATOM     18  C   BRD d   1      -2.492  26.642  23.840  0.00  0.00     0.085 C 
BRANCH  18  19
ATOM     19  N   BRD d   1      -3.317  26.147  24.937  0.00  0.00    -0.308 N 
ATOM     20  C   BRD d   1      -4.606  26.839  24.965  0.00  0.00     0.104 C 
ATOM     21  C   BRD d   1      -2.626  26.311  26.217  0.00  0.00     0.104 C 
ENDBRANCH  18  19
ENDBRANCH  17  18
ENDBRANCH  16  17
ENDBRANCH   3  16
TORSDOF 4
ENDMDL
MODEL 11
REMARK VINA RESULT:      -5.4     16.119     17.888
REMARK  4 active torsions:
REMARK  status: ('A' for Active; 'I' for Inactive)
REMARK    1  A    between atoms: N_3  and  C_5 
REMARK    2  A    between atoms: N_4  and  C_7 
REMARK    3  A    between atoms: C_5  and  C_6 
REMARK    4  A    between atoms: C_6  and  C_7 
ROOT
ATOM      1 CL   BRD d   1       0.751   7.597  22.588  0.00  0.00    -0.084 Cl
ATOM      2  S   BRD d   1       1.720   1.924  20.044  0.00  0.00    -0.086 SA
ATOM      3  N   BRD d   1      -0.297   2.533  22.328  0.00  0.00    -0.298 N 
ATOM      4  C   BRD d   1       0.450   3.642  21.856  0.00  0.00     0.049 A 
ATOM      5  C   BRD d   1      -0.536   1.342  21.598  0.00  0.00     0.048 A 
ATOM      6  C   BRD d   1       1.380   3.498  20.808  0.00  0.00     0.034 A 
ATOM      7  C   BRD d   1       0.295   0.970  20.523  0.00  0.00     0.034 A 
ATOM      8  C   BRD d   1       0.277   4.940  22.384  0.00  0.00     0.044 A 
ATOM      9  C   BRD d   1      -1.630   0.496  21.884  0.00  0.00     0.024 A 
ATOM     10  C   BRD d   1       2.113   4.602  20.338  0.00  0.00     0.018 A 
ATOM     11  C   BRD d   1       0.049  -0.209  19.797  0.00  0.00     0.017 A 
ATOM     12  C   BRD d   1       1.005   6.035  21.910  0.00  0.00     0.043 A 
ATOM     13  C   BRD d   1      -1.874  -0.672  21.157  0.00  0.00     0.002 A 
ATOM     14  C   BRD d   1       1.926   5.865  20.888  0.00  0.00     0.021 A 
ATOM     15  C   BRD d   1      -1.032  -1.027  20.114  0.00  0.00     0.001 A 
ENDROOT
BRANCH   3  16
ATOM     16  C   BRD d   1      -0.932   2.658  23.647  0.00  0.00     0.112 C 
BRANCH  16  17
ATOM     17  C   BRD d   1       0.019   2.195  24.750  0.00  0.00     0.035 C 
BRANCH  17  18
ATOM     18  C   BRD d   1       0.541   3.315  25.653  0.00  0.00     0.085 C 
BRANCH  18  19
ATOM     19  N   BRD d   1       1.998   3.380  25.656  0.00  0.00    -0.308 N 
ATOM     20  C   BRD d   1       2.454   4.739  25.365  0.00  0.00     0.104 C 
ATOM     21  C   BRD d   1       2.558   2.438  24.685  0.00  0.00     0.104 C 
ENDBRANCH  18  19
ENDBRANCH  17  18
ENDBRANCH  16  17
ENDBRANCH   3  16
TORSDOF 4
ENDMDL
MODEL 12
REMARK VINA RESULT:      -5.3     10.184     11.670
REMARK  4 active torsions:
REMARK  status: ('A' for Active; 'I' for Inactive)
REMARK    1  A    between atoms: N_3  and  C_5 
REMARK    2  A    between atoms: N_4  and  C_7 
REMARK    3  A    between atoms: C_5  and  C_6 
REMARK    4  A    between atoms: C_6  and  C_7 
ROOT
ATOM      1 CL   BRD d   1      -2.137   1.164  37.137  0.00  0.00    -0.084 Cl
ATOM      2  S   BRD d   1       1.376   1.733  31.948  0.00  0.00    -0.086 SA
ATOM      3  N   BRD d   1       1.056  -0.875  33.608  0.00  0.00    -0.298 N 
ATOM      4  C   BRD d   1       0.348   0.254  34.094  0.00  0.00     0.049 A 
ATOM      5  C   BRD d   1       1.496  -1.047  32.271  0.00  0.00     0.048 A 
ATOM      6  C   BRD d   1       0.396   1.488  33.416  0.00  0.00     0.034 A 
ATOM      7  C   BRD d   1       1.656   0.058  31.412  0.00  0.00     0.034 A 
ATOM      8  C   BRD d   1      -0.459   0.190  35.250  0.00  0.00     0.044 A 
ATOM      9  C   BRD d   1       1.757  -2.324  31.729  0.00  0.00     0.024 A 
ATOM     10  C   BRD d   1      -0.313   2.602  33.898  0.00  0.00     0.018 A 
ATOM     11  C   BRD d   1       2.086  -0.119  30.084  0.00  0.00     0.017 A 
ATOM     12  C   BRD d   1      -1.166   1.300  35.723  0.00  0.00     0.043 A 
ATOM     13  C   BRD d   1       2.179  -2.496  30.407  0.00  0.00     0.002 A 
ATOM     14  C   BRD d   1      -1.090   2.508  35.047  0.00  0.00     0.021 A 
ATOM     15  C   BRD d   1       2.346  -1.391  29.585  0.00  0.00     0.001 A 
ENDROOT
BRANCH   3  16
ATOM     16  C   BRD d   1       1.287  -1.982  34.544  0.00  0.00     0.112 C 
BRANCH  16  17
ATOM     17  C   BRD d   1       2.761  -2.058  34.938  0.00  0.00     0.035 C 
BRANCH  17  18
ATOM     18  C   BRD d   1       3.234  -0.929  35.858  0.00  0.00     0.085 C 
BRANCH  18  19
ATOM     19  N   BRD d   1       4.536  -0.408  35.457  0.00  0.00    -0.308 N 
ATOM     20  C   BRD d   1       5.123   0.394  36.531  0.00  0.00     0.104 C 
ATOM     21  C   BRD d   1       4.419   0.390  34.235  0.00  0.00     0.104 C 
ENDBRANCH  18  19
ENDBRANCH  17  18
ENDBRANCH  16  17
ENDBRANCH   3  16
TORSDOF 4
ENDMDL
MODEL 13
REMARK VINA RESULT:      -5.1     23.800     25.675
REMARK  4 active torsions:
REMARK  status: ('A' for Active; 'I' for Inactive)
REMARK    1  A    between atoms: N_3  and  C_5 
REMARK    2  A    between atoms: N_4  and  C_7 
REMARK    3  A    between atoms: C_5  and  C_6 
REMARK    4  A    between atoms: C_6  and  C_7 
ROOT
ATOM      1 CL   BRD d   1      -0.375  26.162  15.579  0.00  0.00    -0.084 Cl
ATOM      2  S   BRD d   1      -4.707  27.452  19.957  0.00  0.00    -0.086 SA
ATOM      3  N   BRD d   1      -2.269  25.566  20.361  0.00  0.00    -0.298 N 
ATOM      4  C   BRD d   1      -2.385  26.154  19.076  0.00  0.00     0.049 A 
ATOM      5  C   BRD d   1      -2.854  26.077  21.547  0.00  0.00     0.048 A 
ATOM      6  C   BRD d   1      -3.435  27.045  18.777  0.00  0.00     0.034 A 
ATOM      7  C   BRD d   1      -3.950  26.961  21.493  0.00  0.00     0.034 A 
ATOM      8  C   BRD d   1      -1.445  25.907  18.052  0.00  0.00     0.044 A 
ATOM      9  C   BRD d   1      -2.350  25.759  22.826  0.00  0.00     0.024 A 
ATOM     10  C   BRD d   1      -3.541  27.631  17.503  0.00  0.00     0.018 A 
ATOM     11  C   BRD d   1      -4.521  27.472  22.672  0.00  0.00     0.017 A 
ATOM     12  C   BRD d   1      -1.552  26.496  16.789  0.00  0.00     0.043 A 
ATOM     13  C   BRD d   1      -2.917  26.273  23.996  0.00  0.00     0.002 A 
ATOM     14  C   BRD d   1      -2.603  27.357  16.514  0.00  0.00     0.021 A 
ATOM     15  C   BRD d   1      -4.006  27.128  23.918  0.00  0.00     0.001 A 
ENDROOT
BRANCH   3  16
ATOM     16  C   BRD d   1      -1.419  24.375  20.485  0.00  0.00     0.112 C 
BRANCH  16  17
ATOM     17  C   BRD d   1      -2.246  23.101  20.316  0.00  0.00     0.035 C 
BRANCH  17  18
ATOM     18  C   BRD d   1      -2.101  22.423  18.951  0.00  0.00     0.085 C 
BRANCH  18  19
ATOM     19  N   BRD d   1      -3.081  21.360  18.762  0.00  0.00    -0.308 N 
ATOM     20  C   BRD d   1      -2.415  20.065  18.617  0.00  0.00     0.104 C 
ATOM     21  C   BRD d   1      -3.921  21.633  17.595  0.00  0.00     0.104 C 
ENDBRANCH  18  19
ENDBRANCH  17  18
ENDBRANCH  16  17
ENDBRANCH   3  16
TORSDOF 4
ENDMDL
MODEL 14
REMARK VINA RESULT:      -5.1     21.153     22.472
REMARK  4 active torsions:
REMARK  status: ('A' for Active; 'I' for Inactive)
REMARK    1  A    between atoms: N_3  and  C_5 
REMARK    2  A    between atoms: N_4  and  C_7 
REMARK    3  A    between atoms: C_5  and  C_6 
REMARK    4  A    between atoms: C_6  and  C_7 
ROOT
ATOM      1 CL   BRD d   1      -0.690  29.853  38.432  0.00  0.00    -0.084 Cl
ATOM      2  S   BRD d   1      -4.663  28.389  43.087  0.00  0.00    -0.086 SA
ATOM      3  N   BRD d   1      -5.185  27.870  40.067  0.00  0.00    -0.298 N 
ATOM      4  C   BRD d   1      -3.951  28.494  40.379  0.00  0.00     0.049 A 
ATOM      5  C   BRD d   1      -5.953  27.089  40.967  0.00  0.00     0.048 A 
ATOM      6  C   BRD d   1      -3.590  28.762  41.714  0.00  0.00     0.034 A 
ATOM      7  C   BRD d   1      -5.790  27.216  42.361  0.00  0.00     0.034 A 
ATOM      8  C   BRD d   1      -3.016  28.844  39.381  0.00  0.00     0.044 A 
ATOM      9  C   BRD d   1      -6.885  26.129  40.517  0.00  0.00     0.024 A 
ATOM     10  C   BRD d   1      -2.361  29.375  42.019  0.00  0.00     0.018 A 
ATOM     11  C   BRD d   1      -6.549  26.434  43.249  0.00  0.00     0.017 A 
ATOM     12  C   BRD d   1      -1.794  29.449  39.689  0.00  0.00     0.043 A 
ATOM     13  C   BRD d   1      -7.634  25.349  41.403  0.00  0.00     0.002 A 
ATOM     14  C   BRD d   1      -1.468  29.718  41.010  0.00  0.00     0.021 A 
ATOM     15  C   BRD d   1      -7.468  25.504  42.771  0.00  0.00     0.001 A 
ENDROOT
BRANCH   3  16
ATOM     16  C   BRD d   1      -5.668  27.981  38.685  0.00  0.00     0.112 C 
BRANCH  16  17
ATOM     17  C   BRD d   1      -6.623  29.166  38.540  0.00  0.00     0.035 C 
BRANCH  17  18
ATOM     18  C   BRD d   1      -8.088  28.781  38.316  0.00  0.00     0.085 C 
BRANCH  18  19
ATOM     19  N   BRD d   1      -8.966  29.371  39.320  0.00  0.00    -0.308 N 
ATOM     20  C   BRD d   1      -8.186  30.076  40.338  0.00  0.00     0.104 C 
ATOM     21  C   BRD d   1      -9.801  28.343  39.943  0.00  0.00     0.104 C 
ENDBRANCH  18  19
ENDBRANCH  17  18
ENDBRANCH  16  17
ENDBRANCH   3  16
TORSDOF 4
ENDMDL
MODEL 15
REMARK VINA RESULT:      -5.1     20.696     22.581
REMARK  4 active torsions:
REMARK  status: ('A' for Active; 'I' for Inactive)
REMARK    1  A    between atoms: N_3  and  C_5 
REMARK    2  A    between atoms: N_4  and  C_7 
REMARK    3  A    between atoms: C_5  and  C_6 
REMARK    4  A    between atoms: C_6  and  C_7 
ROOT
ATOM      1 CL   BRD d   1      -1.180  30.749  44.356  0.00  0.00    -0.084 Cl
ATOM      2  S   BRD d   1      -6.971  28.317  43.966  0.00  0.00    -0.086 SA
ATOM      3  N   BRD d   1      -4.724  27.920  41.856  0.00  0.00    -0.298 N 
ATOM      4  C   BRD d   1      -4.383  28.724  42.973  0.00  0.00     0.049 A 
ATOM      5  C   BRD d   1      -5.767  26.961  41.830  0.00  0.00     0.048 A 
ATOM      6  C   BRD d   1      -5.309  28.959  44.007  0.00  0.00     0.034 A 
ATOM      7  C   BRD d   1      -6.830  27.020  42.753  0.00  0.00     0.034 A 
ATOM      8  C   BRD d   1      -3.100  29.296  43.119  0.00  0.00     0.044 A 
ATOM      9  C   BRD d   1      -5.774  25.887  40.914  0.00  0.00     0.024 A 
ATOM     10  C   BRD d   1      -4.964  29.752  45.117  0.00  0.00     0.018 A 
ATOM     11  C   BRD d   1      -7.859  26.061  42.729  0.00  0.00     0.017 A 
ATOM     12  C   BRD d   1      -2.760  30.079  44.227  0.00  0.00     0.043 A 
ATOM     13  C   BRD d   1      -6.795  24.934  40.896  0.00  0.00     0.002 A 
ATOM     14  C   BRD d   1      -3.695  30.310  45.225  0.00  0.00     0.021 A 
ATOM     15  C   BRD d   1      -7.841  25.022  41.803  0.00  0.00     0.001 A 
ENDROOT
BRANCH   3  16
ATOM     16  C   BRD d   1      -3.885  28.039  40.656  0.00  0.00     0.112 C 
BRANCH  16  17
ATOM     17  C   BRD d   1      -4.415  29.137  39.733  0.00  0.00     0.035 C 
BRANCH  17  18
ATOM     18  C   BRD d   1      -5.289  28.634  38.581  0.00  0.00     0.085 C 
BRANCH  18  19
ATOM     19  N   BRD d   1      -6.632  29.201  38.627  0.00  0.00    -0.308 N 
ATOM     20  C   BRD d   1      -6.745  30.169  39.719  0.00  0.00     0.104 C 
ATOM     21  C   BRD d   1      -7.633  28.144  38.781  0.00  0.00     0.104 C 
ENDBRANCH  18  19
ENDBRANCH  17  18
ENDBRANCH  16  17
ENDBRANCH   3  16
TORSDOF 4
ENDMDL
MODEL 16
REMARK VINA RESULT:      -5.0     22.558     25.400
REMARK  4 active torsions:
REMARK  status: ('A' for Active; 'I' for Inactive)
REMARK    1  A    between atoms: N_3  and  C_5 
REMARK    2  A    between atoms: N_4  and  C_7 
REMARK    3  A    between atoms: C_5  and  C_6 
REMARK    4  A    between atoms: C_6  and  C_7 
ROOT
ATOM      1 CL   BRD d   1      -2.790  26.700  19.156  0.00  0.00    -0.084 Cl
ATOM      2  S   BRD d   1      -6.809  29.345  23.212  0.00  0.00    -0.086 SA
ATOM      3  N   BRD d   1      -4.235  27.796  24.006  0.00  0.00    -0.298 N 
ATOM      4  C   BRD d   1      -4.495  27.884  22.615  0.00  0.00     0.049 A 
ATOM      5  C   BRD d   1      -4.748  28.680  24.988  0.00  0.00     0.048 A 
ATOM      6  C   BRD d   1      -5.619  28.580  22.129  0.00  0.00     0.034 A 
ATOM      7  C   BRD d   1      -5.897  29.456  24.738  0.00  0.00     0.034 A 
ATOM      8  C   BRD d   1      -3.630  27.314  21.655  0.00  0.00     0.044 A 
ATOM      9  C   BRD d   1      -4.119  28.853  26.240  0.00  0.00     0.024 A 
ATOM     10  C   BRD d   1      -5.868  28.671  20.748  0.00  0.00     0.018 A 
ATOM     11  C   BRD d   1      -6.397  30.337  25.713  0.00  0.00     0.017 A 
ATOM     12  C   BRD d   1      -3.880  27.412  20.283  0.00  0.00     0.043 A 
ATOM     13  C   BRD d   1      -4.617  29.734  27.205  0.00  0.00     0.002 A 
ATOM     14  C   BRD d   1      -5.002  28.088  19.829  0.00  0.00     0.021 A 
ATOM     15  C   BRD d   1      -5.760  30.475  26.941  0.00  0.00     0.001 A 
ENDROOT
BRANCH   3  16
ATOM     16  C   BRD d   1      -3.305  26.752  24.455  0.00  0.00     0.112 C 
BRANCH  16  17
ATOM     17  C   BRD d   1      -4.063  25.599  25.114  0.00  0.00     0.035 C 
BRANCH  17  18
ATOM     18  C   BRD d   1      -4.608  24.554  24.136  0.00  0.00     0.085 C 
BRANCH  18  19
ATOM     19  N   BRD d   1      -5.496  23.603  24.794  0.00  0.00    -0.308 N 
ATOM     20  C   BRD d   1      -6.876  24.088  24.774  0.00  0.00     0.104 C 
ATOM     21  C   BRD d   1      -5.064  23.359  26.170  0.00  0.00     0.104 C 
ENDBRANCH  18  19
ENDBRANCH  17  18
ENDBRANCH  16  17
ENDBRANCH   3  16
TORSDOF 4
ENDMDL
MODEL 17
REMARK VINA RESULT:      -5.0     25.719     27.543
REMARK  4 active torsions:
REMARK  status: ('A' for Active; 'I' for Inactive)
REMARK    1  A    between atoms: N_3  and  C_5 
REMARK    2  A    between atoms: N_4  and  C_7 
REMARK    3  A    between atoms: C_5  and  C_6 
REMARK    4  A    between atoms: C_6  and  C_7 
ROOT
ATOM      1 CL   BRD d   1     -13.962  -6.532  24.525  0.00  0.00    -0.084 Cl
ATOM      2  S   BRD d   1     -12.100  -0.738  22.924  0.00  0.00    -0.086 SA
ATOM      3  N   BRD d   1     -13.146  -2.889  20.938  0.00  0.00    -0.298 N 
ATOM      4  C   BRD d   1     -13.090  -3.284  22.299  0.00  0.00     0.049 A 
ATOM      5  C   BRD d   1     -13.207  -1.548  20.481  0.00  0.00     0.048 A 
ATOM      6  C   BRD d   1     -12.655  -2.390  23.297  0.00  0.00     0.034 A 
ATOM      7  C   BRD d   1     -12.785  -0.482  21.300  0.00  0.00     0.034 A 
ATOM      8  C   BRD d   1     -13.496  -4.568  22.722  0.00  0.00     0.044 A 
ATOM      9  C   BRD d   1     -13.723  -1.214  19.210  0.00  0.00     0.024 A 
ATOM     10  C   BRD d   1     -12.608  -2.785  24.646  0.00  0.00     0.018 A 
ATOM     11  C   BRD d   1     -12.855   0.847  20.844  0.00  0.00     0.017 A 
ATOM     12  C   BRD d   1     -13.452  -4.954  24.065  0.00  0.00     0.043 A 
ATOM     13  C   BRD d   1     -13.796   0.108  18.764  0.00  0.00     0.002 A 
ATOM     14  C   BRD d   1     -13.005  -4.062  25.028  0.00  0.00     0.021 A 
ATOM     15  C   BRD d   1     -13.358   1.140  19.581  0.00  0.00     0.001 A 
ENDROOT
BRANCH   3  16
ATOM     16  C   BRD d   1     -13.218  -3.952  19.928  0.00  0.00     0.112 C 
BRANCH  16  17
ATOM     17  C   BRD d   1     -11.817  -4.384  19.496  0.00  0.00     0.035 C 
BRANCH  17  18
ATOM     18  C   BRD d   1     -11.484  -4.094  18.031  0.00  0.00     0.085 C 
BRANCH  18  19
ATOM     19  N   BRD d   1     -10.294  -3.261  17.896  0.00  0.00    -0.308 N 
ATOM     20  C   BRD d   1     -10.644  -1.947  17.353  0.00  0.00     0.104 C 
ATOM     21  C   BRD d   1      -9.300  -3.913  17.043  0.00  0.00     0.104 C 
ENDBRANCH  18  19
ENDBRANCH  17  18
ENDBRANCH  16  17
ENDBRANCH   3  16
TORSDOF 4
ENDMDL
MODEL 18
REMARK VINA RESULT:      -5.0     20.384     22.408
REMARK  4 active torsions:
REMARK  status: ('A' for Active; 'I' for Inactive)
REMARK    1  A    between atoms: N_3  and  C_5 
REMARK    2  A    between atoms: N_4  and  C_7 
REMARK    3  A    between atoms: C_5  and  C_6 
REMARK    4  A    between atoms: C_6  and  C_7 
ROOT
ATOM      1 CL   BRD d   1      -6.840  29.861  44.968  0.00  0.00    -0.084 Cl
ATOM      2  S   BRD d   1      -2.314  28.342  40.870  0.00  0.00    -0.086 SA
ATOM      3  N   BRD d   1      -5.319  28.694  40.159  0.00  0.00    -0.298 N 
ATOM      4  C   BRD d   1      -4.983  28.889  41.522  0.00  0.00     0.049 A 
ATOM      5  C   BRD d   1      -4.413  28.801  39.073  0.00  0.00     0.048 A 
ATOM      6  C   BRD d   1      -3.650  28.780  41.964  0.00  0.00     0.034 A 
ATOM      7  C   BRD d   1      -3.024  28.684  39.272  0.00  0.00     0.034 A 
ATOM      8  C   BRD d   1      -5.952  29.235  42.489  0.00  0.00     0.044 A 
ATOM      9  C   BRD d   1      -4.851  29.065  37.757  0.00  0.00     0.024 A 
ATOM     10  C   BRD d   1      -3.321  28.982  43.317  0.00  0.00     0.018 A 
ATOM     11  C   BRD d   1      -2.129  28.799  38.193  0.00  0.00     0.017 A 
ATOM     12  C   BRD d   1      -5.619  29.439  43.831  0.00  0.00     0.043 A 
ATOM     13  C   BRD d   1      -3.959  29.184  36.688  0.00  0.00     0.002 A 
ATOM     14  C   BRD d   1      -4.302  29.310  44.246  0.00  0.00     0.021 A 
ATOM     15  C   BRD d   1      -2.596  29.048  36.906  0.00  0.00     0.001 A 
ENDROOT
BRANCH   3  16
ATOM     16  C   BRD d   1      -6.728  28.430  39.841  0.00  0.00     0.112 C 
BRANCH  16  17
ATOM     17  C   BRD d   1      -7.023  26.932  39.895  0.00  0.00     0.035 C 
BRANCH  17  18
ATOM     18  C   BRD d   1      -8.149  26.539  40.856  0.00  0.00     0.085 C 
BRANCH  18  19
ATOM     19  N   BRD d   1      -7.799  25.372  41.658  0.00  0.00    -0.308 N 
ATOM     20  C   BRD d   1      -7.306  25.780  42.974  0.00  0.00     0.104 C 
ATOM     21  C   BRD d   1      -6.796  24.555  40.971  0.00  0.00     0.104 C 
ENDBRANCH  18  19
ENDBRANCH  17  18
ENDBRANCH  16  17
ENDBRANCH   3  16
TORSDOF 4
ENDMDL
MODEL 19
REMARK VINA RESULT:      -5.0     10.727     12.027
REMARK  4 active torsions:
REMARK  status: ('A' for Active; 'I' for Inactive)
REMARK    1  A    between atoms: N_3  and  C_5 
REMARK    2  A    between atoms: N_4  and  C_7 
REMARK    3  A    between atoms: C_5  and  C_6 
REMARK    4  A    between atoms: C_6  and  C_7 
ROOT
ATOM      1 CL   BRD d   1       2.510  -3.205  29.226  0.00  0.00    -0.084 Cl
ATOM      2  S   BRD d   1       0.291  -1.880  34.962  0.00  0.00    -0.086 SA
ATOM      3  N   BRD d   1       1.076   0.232  32.822  0.00  0.00    -0.298 N 
ATOM      4  C   BRD d   1       1.254  -1.123  32.443  0.00  0.00     0.049 A 
ATOM      5  C   BRD d   1       0.199   0.685  33.839  0.00  0.00     0.048 A 
ATOM      6  C   BRD d   1       0.913  -2.172  33.318  0.00  0.00     0.034 A 
ATOM      7  C   BRD d   1      -0.248  -0.186  34.853  0.00  0.00     0.034 A 
ATOM      8  C   BRD d   1       1.745  -1.485  31.170  0.00  0.00     0.044 A 
ATOM      9  C   BRD d   1      -0.296   2.007  33.867  0.00  0.00     0.024 A 
ATOM     10  C   BRD d   1       1.086  -3.514  32.935  0.00  0.00     0.018 A 
ATOM     11  C   BRD d   1      -1.125   0.266  35.856  0.00  0.00     0.017 A 
ATOM     12  C   BRD d   1       1.910  -2.821  30.792  0.00  0.00     0.043 A 
ATOM     13  C   BRD d   1      -1.171   2.451  34.863  0.00  0.00     0.002 A 
ATOM     14  C   BRD d   1       1.583  -3.836  31.677  0.00  0.00     0.021 A 
ATOM     15  C   BRD d   1      -1.584   1.580  35.860  0.00  0.00     0.001 A 
ENDROOT
BRANCH   3  16
ATOM     16  C   BRD d   1       1.802   1.251  32.053  0.00  0.00     0.112 C 
BRANCH  16  17
ATOM     17  C   BRD d   1       3.095   1.647  32.766  0.00  0.00     0.035 C 
BRANCH  17  18
ATOM     18  C   BRD d   1       4.365   1.038  32.166  0.00  0.00     0.085 C 
BRANCH  18  19
ATOM     19  N   BRD d   1       4.905  -0.030  33.000  0.00  0.00    -0.308 N 
ATOM     20  C   BRD d   1       4.448   0.115  34.383  0.00  0.00     0.104 C 
ATOM     21  C   BRD d   1       6.367  -0.038  32.947  0.00  0.00     0.104 C 
ENDBRANCH  18  19
ENDBRANCH  17  18
ENDBRANCH  16  17
ENDBRANCH   3  16
TORSDOF 4
ENDMDL
MODEL 20
REMARK VINA RESULT:      -5.0     24.806     27.547
REMARK  4 active torsions:
REMARK  status: ('A' for Active; 'I' for Inactive)
REMARK    1  A    between atoms: N_3  and  C_5 
REMARK    2  A    between atoms: N_4  and  C_7 
REMARK    3  A    between atoms: C_5  and  C_6 
REMARK    4  A    between atoms: C_6  and  C_7 
ROOT
ATOM      1 CL   BRD d   1     -11.411   1.250  23.903  0.00  0.00    -0.084 Cl
ATOM      2  S   BRD d   1     -13.904  -1.907  19.065  0.00  0.00    -0.086 SA
ATOM      3  N   BRD d   1     -13.179  -3.148  21.820  0.00  0.00    -0.298 N 
ATOM      4  C   BRD d   1     -12.904  -1.765  21.678  0.00  0.00     0.049 A 
ATOM      5  C   BRD d   1     -14.117  -3.876  21.046  0.00  0.00     0.048 A 
ATOM      6  C   BRD d   1     -13.209  -1.083  20.484  0.00  0.00     0.034 A 
ATOM      7  C   BRD d   1     -14.544  -3.404  19.789  0.00  0.00     0.034 A 
ATOM      8  C   BRD d   1     -12.348  -1.001  22.727  0.00  0.00     0.044 A 
ATOM      9  C   BRD d   1     -14.693  -5.080  21.506  0.00  0.00     0.024 A 
ATOM     10  C   BRD d   1     -12.940   0.291  20.350  0.00  0.00     0.018 A 
ATOM     11  C   BRD d   1     -15.480  -4.126  19.028  0.00  0.00     0.017 A 
ATOM     12  C   BRD d   1     -12.087   0.366  22.590  0.00  0.00     0.043 A 
ATOM     13  C   BRD d   1     -15.628  -5.792  20.750  0.00  0.00     0.002 A 
ATOM     14  C   BRD d   1     -12.382   1.012  21.399  0.00  0.00     0.021 A 
ATOM     15  C   BRD d   1     -16.020  -5.316  19.507  0.00  0.00     0.001 A 
ENDROOT
BRANCH   3  16
ATOM     16  C   BRD d   1     -12.491  -3.866  22.901  0.00  0.00     0.112 C 
BRANCH  16  17
ATOM     17  C   BRD d   1     -13.245  -3.707  24.221  0.00  0.00     0.035 C 
BRANCH  17  18
ATOM     18  C   BRD d   1     -13.386  -4.996  25.035  0.00  0.00     0.085 C 
BRANCH  18  19
ATOM     19  N   BRD d   1     -12.970  -4.815  26.421  0.00  0.00    -0.308 N 
ATOM     20  C   BRD d   1     -11.542  -4.504  26.494  0.00  0.00     0.104 C 
ATOM     21  C   BRD d   1     -13.270  -6.010  27.210  0.00  0.00     0.104 C 
ENDBRANCH  18  19
ENDBRANCH  17  18
ENDBRANCH  16  17
ENDBRANCH   3  16
TORSDOF 4
ENDMDL
