REMARK  11 active torsions:
REMARK  status: ('A' for Active; 'I' for Inactive)
REMARK    1  A    between atoms: N_1  and  C_10 
REMARK    2  A    between atoms: C_2  and  C_6 
REMARK    3  A    between atoms: C_3  and  C_4 
REMARK    4  A    between atoms: C_3  and  C_5 
REMARK    5  A    between atoms: C_6  and  C_13 
REMARK    6  A    between atoms: C_11  and  O_31 
REMARK    7  A    between atoms: C_13  and  O_32 
REMARK    8  A    between atoms: C_15  and  O_33 
REMARK    9  A    between atoms: C_15  and  C_16 
REMARK   10  A    between atoms: C_16  and  C_17 
REMARK   11  A    between atoms: C_17  and  C_20 
ROOT
HETATM    1  C   UNK             7.779  -2.536   0.000  0.00  0.00    -0.006 A 
HETATM    2  C   UNK             8.292  -3.394   0.000  0.00  0.00     0.043 A 
HETATM    3  C   UNK             9.292  -3.379   0.000  0.00  0.00     0.160 C 
HETATM    4  O   UNK             7.293  -3.410   0.000  0.00  0.00     0.000 OA
HETATM    5  O   UNK             7.806  -4.268   0.000  0.00  0.00    -0.242 OA
HETATM    6  H   UNK             6.673  -3.419   0.000  0.00  0.00     0.000 HD
ENDROOT
BRANCH   1   7
HETATM    7  C   UNK             6.871  -2.026   0.000  0.00  0.00     0.023 A 
HETATM    8  C   UNK             6.867  -0.984   0.000  0.00  0.00     0.061 A 
HETATM    9  O   UNK             6.001  -0.484   0.000  0.00  0.00     0.000 OA
HETATM   10  C   UNK             5.135  -0.984   0.000  0.00  0.00     0.128 A 
HETATM   11  C   UNK             5.135  -1.984   0.000  0.00  0.00     0.126 A 
HETATM   12  O   UNK             4.269  -0.484   0.000  0.00  0.00    -0.387 OA
HETATM   13  C   UNK             4.269  -2.484   0.000  0.00  0.00     0.492 A 
HETATM   14  C   UNK             3.403  -1.984   0.000  0.00  0.00     0.032 A 
HETATM   15  C   UNK             3.403  -0.984   0.000  0.00  0.00     0.078 A 
HETATM   16  C   UNK             2.537  -0.484   0.000  0.00  0.00     0.111 A 
BRANCH   8  17
HETATM   17  C   UNK             7.771  -0.467   0.000  0.00  0.00    -0.002 A 
HETATM   18  C   UNK             8.643  -0.957   0.000  0.00  0.00     0.011 A 
HETATM   19  C   UNK             8.671  -1.998   0.000  0.00  0.00     0.090 A 
HETATM   20  C   UNK             9.503  -0.447   0.000  0.00  0.00     0.128 A 
HETATM   21  C   UNK             9.491   0.553   0.000  0.00  0.00     0.118 A 
HETATM   22  C   UNK            10.396   1.071   0.000  0.00  0.00     0.122 A 
HETATM   23  C   UNK            10.392   2.112   0.000  0.00  0.00     0.015 A 
HETATM   24  O   UNK            11.262   0.571   0.000  0.00  0.00    -0.302 OA
HETATM   25  C   UNK             8.620   1.043   0.000  0.00  0.00     0.143 A 
HETATM   26  C   UNK             9.483   2.623   0.000  0.00  0.00     0.015 A 
HETATM   27  C   UNK            11.333   2.651   0.000  0.00  0.00     0.015 A 
HETATM   28  C   UNK             8.592   2.085   0.000  0.00  0.00     0.124 A 
HETATM   29  C   UNK             9.454   3.707   0.000  0.00  0.00     0.015 A 
HETATM   30  O   UNK             7.714   2.564   0.000  0.00  0.00    -0.302 OA
HETATM   31  C   UNK             7.760   0.533   0.000  0.00  0.00     0.140 A 
HETATM   32  C   UNK            10.383   4.268   0.000  0.00  0.00     0.001 A 
HETATM   33  C   UNK            11.329   3.736   0.000  0.00  0.00     0.001 A 
BRANCH  20  34
HETATM   34  O   UNK            10.375  -0.937   0.000  0.00  0.00    -0.382 OA
HETATM   35  H   UNK            10.382  -1.556   0.000  0.00  0.00     0.211 HD
ENDBRANCH  20  34
BRANCH  31  36
HETATM   36  O   UNK             6.888   1.023   0.000  0.00  0.00    -0.380 OA
HETATM   37  H   UNK             6.881   1.643   0.000  0.00  0.00     0.211 HD
ENDBRANCH  31  36
ENDBRANCH   8  17
BRANCH  13  38
HETATM   38  N   UNK             4.269  -3.484   0.000  0.00  0.00    -0.125 N 
HETATM   39  H   UNK             3.732  -3.794   0.000  0.00  0.00     0.257 HD
HETATM   40  H   UNK             4.806  -3.794   0.000  0.00  0.00     0.257 HD
ENDBRANCH  13  38
BRANCH  14  41
HETATM   41  O   UNK             2.537  -2.484   0.000  0.00  0.00     0.000 OA
HETATM   42  H   UNK             2.000  -2.174   0.000  0.00  0.00     0.000 HD
ENDBRANCH  14  41
ENDBRANCH   1   7
TORSDOF 11
