MODEL 1
REMARK VINA RESULT:     -10.0      0.000      0.000
REMARK  11 active torsions:
REMARK  status: ('A' for Active; 'I' for Inactive)
REMARK    1  A    between atoms: N_1  and  C_10 
REMARK    2  A    between atoms: C_2  and  C_6 
REMARK    3  A    between atoms: C_3  and  C_4 
REMARK    4  A    between atoms: C_3  and  C_5 
REMARK    5  A    between atoms: C_6  and  C_13 
REMARK    6  A    between atoms: C_11  and  O_31 
REMARK    7  A    between atoms: C_13  and  O_32 
REMARK    8  A    between atoms: C_15  and  O_33 
REMARK    9  A    between atoms: C_15  and  C_16 
REMARK   10  A    between atoms: C_16  and  C_17 
REMARK   11  A    between atoms: C_17  and  C_20 
ROOT
HETATM    1  C   UNK A          29.931  44.811  21.069  0.00  0.00    -0.006 A 
HETATM    2  C   UNK A          30.159  44.966  22.030  0.00  0.00     0.043 A 
HETATM    3  C   UNK A          30.424  44.198  22.612  0.00  0.00     0.160 C 
HETATM    4  O   UNK A          29.894  45.735  21.449  0.00  0.00     0.000 OA
HETATM    5  O   UNK A          30.121  45.891  22.410  0.00  0.00    -0.242 OA
HETATM    6  H   UNK A          29.730  46.212  21.088  0.00  0.00     0.000 HD
ENDROOT
BRANCH   1   7
HETATM    7  C   UNK A          29.636  45.176  20.139  0.00  0.00     0.023 A 
HETATM    8  C   UNK A          29.692  44.558  19.303  0.00  0.00     0.061 A 
HETATM    9  O   UNK A          29.411  44.898  18.405  0.00  0.00     0.000 OA
HETATM   10  C   UNK A          29.074  45.835  18.309  0.00  0.00     0.128 A 
HETATM   11  C   UNK A          29.018  46.431  19.110  0.00  0.00     0.126 A 
HETATM   12  O   UNK A          28.792  46.175  17.412  0.00  0.00    -0.387 OA
HETATM   13  C   UNK A          28.680  47.367  19.014  0.00  0.00     0.492 A 
HETATM   14  C   UNK A          28.399  47.708  18.117  0.00  0.00     0.032 A 
HETATM   15  C   UNK A          28.455  47.112  17.316  0.00  0.00     0.078 A 
HETATM   16  C   UNK A          28.173  47.452  16.419  0.00  0.00     0.111 A 
BRANCH   8  17
HETATM   17  C   UNK A          30.045  43.584  19.407  0.00  0.00    -0.002 A 
HETATM   18  C   UNK A          29.417  42.828  19.598  0.00  0.00     0.011 A 
HETATM   19  C   UNK A          28.394  42.996  19.698  0.00  0.00     0.090 A 
HETATM   20  C   UNK A          29.770  41.898  19.695  0.00  0.00     0.128 A 
HETATM   21  C   UNK A          30.750  41.723  19.602  0.00  0.00     0.118 A 
HETATM   22  C   UNK A          31.103  40.747  19.707  0.00  0.00     0.122 A 
HETATM   23  C   UNK A          32.122  40.556  19.611  0.00  0.00     0.015 A 
HETATM   24  O   UNK A          30.466  39.999  19.897  0.00  0.00    -0.302 OA
HETATM   25  C   UNK A          31.377  42.477  19.411  0.00  0.00     0.143 A 
HETATM   26  C   UNK A          32.776  41.343  19.412  0.00  0.00     0.015 A 
HETATM   27  C   UNK A          32.489  39.542  19.719  0.00  0.00     0.015 A 
HETATM   28  C   UNK A          32.401  42.309  19.312  0.00  0.00     0.124 A 
HETATM   29  C   UNK A          33.841  41.169  19.308  0.00  0.00     0.015 A 
HETATM   30  O   UNK A          33.019  43.072  19.121  0.00  0.00    -0.302 OA
HETATM   31  C   UNK A          31.024  43.407  19.314  0.00  0.00     0.140 A 
HETATM   32  C   UNK A          34.232  40.162  19.412  0.00  0.00     0.001 A 
HETATM   33  C   UNK A          33.551  39.343  19.620  0.00  0.00     0.001 A 
BRANCH  20  34
HETATM   34  O   UNK A          29.142  41.143  19.886  0.00  0.00    -0.382 OA
HETATM   35  H   UNK A          28.779  40.921  19.437  0.00  0.00     0.211 HD
ENDBRANCH  20  34
BRANCH  31  36
HETATM   36  O   UNK A          31.652  44.162  19.123  0.00  0.00    -0.380 OA
HETATM   37  H   UNK A          31.700  44.634  19.522  0.00  0.00     0.211 HD
ENDBRANCH  31  36
ENDBRANCH   8  17
BRANCH  13  38
HETATM   38  N   UNK A          28.624  47.963  19.815  0.00  0.00    -0.125 N 
HETATM   39  H   UNK A          29.024  48.432  19.881  0.00  0.00     0.257 HD
HETATM   40  H   UNK A          28.189  47.864  20.246  0.00  0.00     0.257 HD
ENDBRANCH  13  38
BRANCH  14  41
HETATM   41  O   UNK A          28.061  48.644  18.021  0.00  0.00     0.000 OA
HETATM   42  H   UNK A          27.592  48.766  17.634  0.00  0.00     0.000 HD
ENDBRANCH  14  41
ENDBRANCH   1   7
TORSDOF 11
ENDMDL
MODEL 2
REMARK VINA RESULT:      -9.9      3.488      7.075
REMARK  11 active torsions:
REMARK  status: ('A' for Active; 'I' for Inactive)
REMARK    1  A    between atoms: N_1  and  C_10 
REMARK    2  A    between atoms: C_2  and  C_6 
REMARK    3  A    between atoms: C_3  and  C_4 
REMARK    4  A    between atoms: C_3  and  C_5 
REMARK    5  A    between atoms: C_6  and  C_13 
REMARK    6  A    between atoms: C_11  and  O_31 
REMARK    7  A    between atoms: C_13  and  O_32 
REMARK    8  A    between atoms: C_15  and  O_33 
REMARK    9  A    between atoms: C_15  and  C_16 
REMARK   10  A    between atoms: C_16  and  C_17 
REMARK   11  A    between atoms: C_17  and  C_20 
ROOT
HETATM    1  C   UNK A          27.297  46.895  16.141  0.00  0.00    -0.006 A 
HETATM    2  C   UNK A          26.522  47.518  16.037  0.00  0.00     0.043 A 
HETATM    3  C   UNK A          26.212  47.783  15.123  0.00  0.00     0.160 C 
HETATM    4  O   UNK A          26.831  47.254  16.949  0.00  0.00     0.000 OA
HETATM    5  O   UNK A          26.056  47.877  16.845  0.00  0.00    -0.242 OA
HETATM    6  H   UNK A          27.023  47.089  17.516  0.00  0.00     0.000 HD
ENDROOT
BRANCH   1   7
HETATM    7  C   UNK A          27.951  46.360  16.750  0.00  0.00     0.023 A 
HETATM    8  C   UNK A          28.785  45.900  16.328  0.00  0.00     0.061 A 
HETATM    9  O   UNK A          29.420  45.383  16.903  0.00  0.00     0.000 OA
HETATM   10  C   UNK A          29.254  45.307  17.886  0.00  0.00     0.128 A 
HETATM   11  C   UNK A          28.454  45.747  18.294  0.00  0.00     0.126 A 
HETATM   12  O   UNK A          29.889  44.791  18.461  0.00  0.00    -0.387 OA
HETATM   13  C   UNK A          28.289  45.671  19.278  0.00  0.00     0.492 A 
HETATM   14  C   UNK A          28.924  45.155  19.853  0.00  0.00     0.032 A 
HETATM   15  C   UNK A          29.723  44.715  19.445  0.00  0.00     0.078 A 
HETATM   16  C   UNK A          30.358  44.198  20.020  0.00  0.00     0.111 A 
BRANCH   8  17
HETATM   17  C   UNK A          28.954  45.981  15.304  0.00  0.00    -0.002 A 
HETATM   18  C   UNK A          29.498  46.734  14.931  0.00  0.00     0.011 A 
HETATM   19  C   UNK A          29.911  47.456  15.557  0.00  0.00     0.090 A 
HETATM   20  C   UNK A          29.651  46.799  13.945  0.00  0.00     0.128 A 
HETATM   21  C   UNK A          29.261  46.112  13.332  0.00  0.00     0.118 A 
HETATM   22  C   UNK A          29.429  46.194  12.306  0.00  0.00     0.122 A 
HETATM   23  C   UNK A          29.026  45.483  11.661  0.00  0.00     0.015 A 
HETATM   24  O   UNK A          29.975  46.950  11.944  0.00  0.00    -0.302 OA
HETATM   25  C   UNK A          28.717  45.361  13.704  0.00  0.00     0.143 A 
HETATM   26  C   UNK A          28.459  44.699  12.049  0.00  0.00     0.015 A 
HETATM   27  C   UNK A          29.201  45.567  10.594  0.00  0.00     0.015 A 
HETATM   28  C   UNK A          28.304  44.638  13.077  0.00  0.00     0.124 A 
HETATM   29  C   UNK A          28.029  43.947  11.397  0.00  0.00     0.015 A 
HETATM   30  O   UNK A          27.762  43.890  13.461  0.00  0.00    -0.302 OA
HETATM   31  C   UNK A          28.564  45.295  14.690  0.00  0.00     0.140 A 
HETATM   32  C   UNK A          28.191  44.010  10.326  0.00  0.00     0.001 A 
HETATM   33  C   UNK A          28.781  44.827   9.922  0.00  0.00     0.001 A 
BRANCH  20  34
HETATM   34  O   UNK A          30.195  47.551  13.572  0.00  0.00    -0.382 OA
HETATM   35  H   UNK A          30.703  47.430  13.240  0.00  0.00     0.211 HD
ENDBRANCH  20  34
BRANCH  31  36
HETATM   36  O   UNK A          28.020  44.543  15.062  0.00  0.00    -0.380 OA
HETATM   37  H   UNK A          27.598  44.654  15.502  0.00  0.00     0.211 HD
ENDBRANCH  31  36
ENDBRANCH   8  17
BRANCH  13  38
HETATM   38  N   UNK A          27.489  46.111  19.686  0.00  0.00    -0.125 N 
HETATM   39  H   UNK A          26.927  45.861  19.613  0.00  0.00     0.257 HD
HETATM   40  H   UNK A          27.556  46.634  20.012  0.00  0.00     0.257 HD
ENDBRANCH  13  38
BRANCH  14  41
HETATM   41  O   UNK A          28.758  45.078  20.836  0.00  0.00     0.000 OA
HETATM   42  H   UNK A          29.236  45.029  21.228  0.00  0.00     0.000 HD
ENDBRANCH  14  41
ENDBRANCH   1   7
TORSDOF 11
ENDMDL
MODEL 3
REMARK VINA RESULT:      -9.8      4.415      7.937
REMARK  11 active torsions:
REMARK  status: ('A' for Active; 'I' for Inactive)
REMARK    1  A    between atoms: N_1  and  C_10 
REMARK    2  A    between atoms: C_2  and  C_6 
REMARK    3  A    between atoms: C_3  and  C_4 
REMARK    4  A    between atoms: C_3  and  C_5 
REMARK    5  A    between atoms: C_6  and  C_13 
REMARK    6  A    between atoms: C_11  and  O_31 
REMARK    7  A    between atoms: C_13  and  O_32 
REMARK    8  A    between atoms: C_15  and  O_33 
REMARK    9  A    between atoms: C_15  and  C_16 
REMARK   10  A    between atoms: C_16  and  C_17 
REMARK   11  A    between atoms: C_17  and  C_20 
ROOT
HETATM    1  C   UNK A          29.156  46.338  15.261  0.00  0.00    -0.006 A 
HETATM    2  C   UNK A          29.765  47.128  15.322  0.00  0.00     0.043 A 
HETATM    3  C   UNK A          29.711  47.856  14.638  0.00  0.00     0.160 C 
HETATM    4  O   UNK A          29.820  46.402  16.006  0.00  0.00     0.000 OA
HETATM    5  O   UNK A          30.429  47.192  16.068  0.00  0.00    -0.242 OA
HETATM    6  H   UNK A          29.853  45.951  16.430  0.00  0.00     0.000 HD
ENDROOT
BRANCH   1   7
HETATM    7  C   UNK A          28.820  45.425  15.633  0.00  0.00     0.023 A 
HETATM    8  C   UNK A          28.209  44.823  15.041  0.00  0.00     0.061 A 
HETATM    9  O   UNK A          27.881  43.944  15.388  0.00  0.00     0.000 OA
HETATM   10  C   UNK A          28.139  43.641  16.305  0.00  0.00     0.128 A 
HETATM   11  C   UNK A          28.725  44.216  16.875  0.00  0.00     0.126 A 
HETATM   12  O   UNK A          27.811  42.762  16.652  0.00  0.00    -0.387 OA
HETATM   13  C   UNK A          28.983  43.912  17.792  0.00  0.00     0.492 A 
HETATM   14  C   UNK A          28.655  43.033  18.139  0.00  0.00     0.032 A 
HETATM   15  C   UNK A          28.069  42.458  17.569  0.00  0.00     0.078 A 
HETATM   16  C   UNK A          27.740  41.580  17.915  0.00  0.00     0.111 A 
BRANCH   8  17
HETATM   17  C   UNK A          27.943  45.143  14.086  0.00  0.00    -0.002 A 
HETATM   18  C   UNK A          27.120  45.692  13.940  0.00  0.00     0.011 A 
HETATM   19  C   UNK A          26.507  45.960  14.738  0.00  0.00     0.090 A 
HETATM   20  C   UNK A          26.877  45.992  13.018  0.00  0.00     0.128 A 
HETATM   21  C   UNK A          27.456  45.742  12.242  0.00  0.00     0.118 A 
HETATM   22  C   UNK A          27.190  46.062  11.286  0.00  0.00     0.122 A 
HETATM   23  C   UNK A          27.787  45.806  10.473  0.00  0.00     0.015 A 
HETATM   24  O   UNK A          26.365  46.611  11.151  0.00  0.00    -0.302 OA
HETATM   25  C   UNK A          28.278  45.193  12.388  0.00  0.00     0.143 A 
HETATM   26  C   UNK A          28.645  45.233  10.626  0.00  0.00     0.015 A 
HETATM   27  C   UNK A          27.511  46.139   9.479  0.00  0.00     0.015 A 
HETATM   28  C   UNK A          28.892  44.924  11.589  0.00  0.00     0.124 A 
HETATM   29  C   UNK A          29.283  44.954   9.794  0.00  0.00     0.015 A 
HETATM   30  O   UNK A          29.712  44.374  11.748  0.00  0.00    -0.302 OA
HETATM   31  C   UNK A          28.521  44.893  13.310  0.00  0.00     0.140 A 
HETATM   32  C   UNK A          29.026  45.275   8.790  0.00  0.00     0.001 A 
HETATM   33  C   UNK A          28.134  45.872   8.632  0.00  0.00     0.001 A 
BRANCH  20  34
HETATM   34  O   UNK A          26.054  46.542  12.871  0.00  0.00    -0.382 OA
HETATM   35  H   UNK A          25.792  46.839  13.347  0.00  0.00     0.211 HD
ENDBRANCH  20  34
BRANCH  31  36
HETATM   36  O   UNK A          29.344  44.343  13.457  0.00  0.00    -0.380 OA
HETATM   37  H   UNK A          29.356  43.750  13.276  0.00  0.00     0.211 HD
ENDBRANCH  31  36
ENDBRANCH   8  17
BRANCH  13  38
HETATM   38  N   UNK A          29.570  44.487  18.363  0.00  0.00    -0.125 N 
HETATM   39  H   UNK A          29.812  44.260  18.887  0.00  0.00     0.257 HD
HETATM   40  H   UNK A          29.691  45.071  18.193  0.00  0.00     0.257 HD
ENDBRANCH  13  38
BRANCH  14  41
HETATM   41  O   UNK A          28.913  42.730  19.056  0.00  0.00     0.000 OA
HETATM   42  H   UNK A          28.978  43.144  19.513  0.00  0.00     0.000 HD
ENDBRANCH  14  41
ENDBRANCH   1   7
TORSDOF 11
ENDMDL
MODEL 4
REMARK VINA RESULT:      -9.8      5.078      9.449
REMARK  11 active torsions:
REMARK  status: ('A' for Active; 'I' for Inactive)
REMARK    1  A    between atoms: N_1  and  C_10 
REMARK    2  A    between atoms: C_2  and  C_6 
REMARK    3  A    between atoms: C_3  and  C_4 
REMARK    4  A    between atoms: C_3  and  C_5 
REMARK    5  A    between atoms: C_6  and  C_13 
REMARK    6  A    between atoms: C_11  and  O_31 
REMARK    7  A    between atoms: C_13  and  O_32 
REMARK    8  A    between atoms: C_15  and  O_33 
REMARK    9  A    between atoms: C_15  and  C_16 
REMARK   10  A    between atoms: C_16  and  C_17 
REMARK   11  A    between atoms: C_17  and  C_20 
ROOT
HETATM    1  C   UNK A          35.147  36.920  17.418  0.00  0.00    -0.006 A 
HETATM    2  C   UNK A          34.451  36.268  17.118  0.00  0.00     0.043 A 
HETATM    3  C   UNK A          33.588  36.193  17.618  0.00  0.00     0.160 C 
HETATM    4  O   UNK A          35.312  36.343  16.618  0.00  0.00     0.000 OA
HETATM    5  O   UNK A          34.616  35.691  16.318  0.00  0.00    -0.242 OA
HETATM    6  H   UNK A          35.848  36.390  16.308  0.00  0.00     0.000 HD
ENDROOT
BRANCH   1   7
HETATM    7  C   UNK A          36.084  37.360  17.300  0.00  0.00     0.023 A 
HETATM    8  C   UNK A          36.281  38.278  17.752  0.00  0.00     0.061 A 
HETATM    9  O   UNK A          37.177  38.709  17.646  0.00  0.00     0.000 OA
HETATM   10  C   UNK A          37.887  38.259  17.104  0.00  0.00     0.128 A 
HETATM   11  C   UNK A          37.702  37.378  16.669  0.00  0.00     0.126 A 
HETATM   12  O   UNK A          38.783  38.690  16.998  0.00  0.00    -0.387 OA
HETATM   13  C   UNK A          38.412  36.928  16.128  0.00  0.00     0.492 A 
HETATM   14  C   UNK A          39.308  37.359  16.022  0.00  0.00     0.032 A 
HETATM   15  C   UNK A          39.494  38.240  16.457  0.00  0.00     0.078 A 
HETATM   16  C   UNK A          40.390  38.671  16.351  0.00  0.00     0.111 A 
BRANCH   8  17
HETATM   17  C   UNK A          35.539  38.743  18.315  0.00  0.00    -0.002 A 
HETATM   18  C   UNK A          35.427  38.538  19.287  0.00  0.00     0.011 A 
HETATM   19  C   UNK A          36.051  37.854  19.764  0.00  0.00     0.090 A 
HETATM   20  C   UNK A          34.710  38.993  19.815  0.00  0.00     0.128 A 
HETATM   21  C   UNK A          34.104  39.652  19.370  0.00  0.00     0.118 A 
HETATM   22  C   UNK A          33.361  40.119  19.933  0.00  0.00     0.122 A 
HETATM   23  C   UNK A          32.726  40.806  19.478  0.00  0.00     0.015 A 
HETATM   24  O   UNK A          33.258  39.906  20.905  0.00  0.00    -0.302 OA
HETATM   25  C   UNK A          34.215  39.857  18.398  0.00  0.00     0.143 A 
HETATM   26  C   UNK A          32.842  41.020  18.463  0.00  0.00     0.015 A 
HETATM   27  C   UNK A          31.953  41.291  20.063  0.00  0.00     0.015 A 
HETATM   28  C   UNK A          33.591  40.543  17.921  0.00  0.00     0.124 A 
HETATM   29  C   UNK A          32.193  41.733  17.967  0.00  0.00     0.015 A 
HETATM   30  O   UNK A          33.712  40.739  16.948  0.00  0.00    -0.302 OA
HETATM   31  C   UNK A          34.933  39.403  17.871  0.00  0.00     0.140 A 
HETATM   32  C   UNK A          31.412  42.231  18.533  0.00  0.00     0.001 A 
HETATM   33  C   UNK A          31.291  42.008  19.588  0.00  0.00     0.001 A 
BRANCH  20  34
HETATM   34  O   UNK A          34.599  38.788  20.788  0.00  0.00    -0.382 OA
HETATM   35  H   UNK A          34.885  38.298  21.036  0.00  0.00     0.211 HD
ENDBRANCH  20  34
BRANCH  31  36
HETATM   36  O   UNK A          35.044  39.608  16.898  0.00  0.00    -0.380 OA
HETATM   37  H   UNK A          34.820  40.137  16.665  0.00  0.00     0.211 HD
ENDBRANCH  31  36
ENDBRANCH   8  17
BRANCH  13  38
HETATM   38  N   UNK A          38.226  36.047  15.693  0.00  0.00    -0.125 N 
HETATM   39  H   UNK A          38.474  35.528  15.925  0.00  0.00     0.257 HD
HETATM   40  H   UNK A          37.863  36.019  15.191  0.00  0.00     0.257 HD
ENDBRANCH  13  38
BRANCH  14  41
HETATM   41  O   UNK A          40.018  36.909  15.480  0.00  0.00     0.000 OA
HETATM   42  H   UNK A          39.915  36.346  15.240  0.00  0.00     0.000 HD
ENDBRANCH  14  41
ENDBRANCH   1   7
TORSDOF 11
ENDMDL
MODEL 5
REMARK VINA RESULT:      -9.7      4.532      7.622
REMARK  11 active torsions:
REMARK  status: ('A' for Active; 'I' for Inactive)
REMARK    1  A    between atoms: N_1  and  C_10 
REMARK    2  A    between atoms: C_2  and  C_6 
REMARK    3  A    between atoms: C_3  and  C_4 
REMARK    4  A    between atoms: C_3  and  C_5 
REMARK    5  A    between atoms: C_6  and  C_13 
REMARK    6  A    between atoms: C_11  and  O_31 
REMARK    7  A    between atoms: C_13  and  O_32 
REMARK    8  A    between atoms: C_15  and  O_33 
REMARK    9  A    between atoms: C_15  and  C_16 
REMARK   10  A    between atoms: C_16  and  C_17 
REMARK   11  A    between atoms: C_17  and  C_20 
ROOT
HETATM    1  C   UNK A          27.452  46.779  13.261  0.00  0.00    -0.006 A 
HETATM    2  C   UNK A          26.551  47.205  13.180  0.00  0.00     0.043 A 
HETATM    3  C   UNK A          26.146  47.673  13.966  0.00  0.00     0.160 C 
HETATM    4  O   UNK A          26.955  46.738  12.394  0.00  0.00     0.000 OA
HETATM    5  O   UNK A          26.054  47.165  12.313  0.00  0.00    -0.242 OA
HETATM    6  H   UNK A          27.206  46.448  11.907  0.00  0.00     0.000 HD
ENDROOT
BRANCH   1   7
HETATM    7  C   UNK A          28.238  46.242  12.840  0.00  0.00     0.023 A 
HETATM    8  C   UNK A          29.045  45.959  13.436  0.00  0.00     0.061 A 
HETATM    9  O   UNK A          29.805  45.443  13.043  0.00  0.00     0.000 OA
HETATM   10  C   UNK A          29.794  45.196  12.074  0.00  0.00     0.128 A 
HETATM   11  C   UNK A          29.022  45.466  11.499  0.00  0.00     0.126 A 
HETATM   12  O   UNK A          30.555  44.680  11.680  0.00  0.00    -0.387 OA
HETATM   13  C   UNK A          29.010  45.219  10.530  0.00  0.00     0.492 A 
HETATM   14  C   UNK A          29.771  44.703  10.136  0.00  0.00     0.032 A 
HETATM   15  C   UNK A          30.543  44.433  10.711  0.00  0.00     0.078 A 
HETATM   16  C   UNK A          31.304  43.917  10.318  0.00  0.00     0.111 A 
BRANCH   8  17
HETATM   17  C   UNK A          29.053  46.218  14.445  0.00  0.00    -0.002 A 
HETATM   18  C   UNK A          29.428  47.095  14.747  0.00  0.00     0.011 A 
HETATM   19  C   UNK A          29.821  47.773  14.062  0.00  0.00     0.090 A 
HETATM   20  C   UNK A          29.429  47.329  15.719  0.00  0.00     0.128 A 
HETATM   21  C   UNK A          29.055  46.688  16.389  0.00  0.00     0.118 A 
HETATM   22  C   UNK A          29.063  46.947  17.399  0.00  0.00     0.122 A 
HETATM   23  C   UNK A          28.675  46.284  18.102  0.00  0.00     0.015 A 
HETATM   24  O   UNK A          29.440  47.826  17.690  0.00  0.00    -0.302 OA
HETATM   25  C   UNK A          28.680  45.812  16.087  0.00  0.00     0.143 A 
HETATM   26  C   UNK A          28.284  45.370  17.787  0.00  0.00     0.015 A 
HETATM   27  C   UNK A          28.683  46.553  19.153  0.00  0.00     0.015 A 
HETATM   28  C   UNK A          28.287  45.133  16.774  0.00  0.00     0.124 A 
HETATM   29  C   UNK A          27.875  44.664  18.501  0.00  0.00     0.015 A 
HETATM   30  O   UNK A          27.914  44.259  16.460  0.00  0.00    -0.302 OA
HETATM   31  C   UNK A          28.679  45.577  15.115  0.00  0.00     0.140 A 
HETATM   32  C   UNK A          27.872  44.911  19.558  0.00  0.00     0.001 A 
HETATM   33  C   UNK A          28.280  45.862  19.886  0.00  0.00     0.001 A 
BRANCH  20  34
HETATM   34  O   UNK A          29.804  48.206  16.022  0.00  0.00    -0.382 OA
HETATM   35  H   UNK A          30.036  48.263  16.593  0.00  0.00     0.211 HD
ENDBRANCH  20  34
BRANCH  31  36
HETATM   36  O   UNK A          28.304  44.700  14.813  0.00  0.00    -0.380 OA
HETATM   37  H   UNK A          28.277  44.222  15.207  0.00  0.00     0.211 HD
ENDBRANCH  31  36
ENDBRANCH   8  17
BRANCH  13  38
HETATM   38  N   UNK A          28.238  45.488   9.954  0.00  0.00    -0.125 N 
HETATM   39  H   UNK A          27.677  45.567  10.205  0.00  0.00     0.257 HD
HETATM   40  H   UNK A          28.321  45.577   9.346  0.00  0.00     0.257 HD
ENDBRANCH  13  38
BRANCH  14  41
HETATM   41  O   UNK A          29.760  44.456   9.167  0.00  0.00     0.000 OA
HETATM   42  H   UNK A          29.578  43.889   8.994  0.00  0.00     0.000 HD
ENDBRANCH  14  41
ENDBRANCH   1   7
TORSDOF 11
ENDMDL
MODEL 6
REMARK VINA RESULT:      -9.7      4.382      8.129
REMARK  11 active torsions:
REMARK  status: ('A' for Active; 'I' for Inactive)
REMARK    1  A    between atoms: N_1  and  C_10 
REMARK    2  A    between atoms: C_2  and  C_6 
REMARK    3  A    between atoms: C_3  and  C_4 
REMARK    4  A    between atoms: C_3  and  C_5 
REMARK    5  A    between atoms: C_6  and  C_13 
REMARK    6  A    between atoms: C_11  and  O_31 
REMARK    7  A    between atoms: C_13  and  O_32 
REMARK    8  A    between atoms: C_15  and  O_33 
REMARK    9  A    between atoms: C_15  and  C_16 
REMARK   10  A    between atoms: C_16  and  C_17 
REMARK   11  A    between atoms: C_17  and  C_20 
ROOT
HETATM    1  C   UNK A          26.954  46.419  15.222  0.00  0.00    -0.006 A 
HETATM    2  C   UNK A          26.433  47.265  15.338  0.00  0.00     0.043 A 
HETATM    3  C   UNK A          26.287  47.873  14.557  0.00  0.00     0.160 C 
HETATM    4  O   UNK A          26.577  46.658  16.118  0.00  0.00     0.000 OA
HETATM    5  O   UNK A          26.056  47.503  16.233  0.00  0.00    -0.242 OA
HETATM    6  H   UNK A          26.668  46.280  16.601  0.00  0.00     0.000 HD
ENDROOT
BRANCH   1   7
HETATM    7  C   UNK A          27.356  45.544  15.619  0.00  0.00     0.023 A 
HETATM    8  C   UNK A          28.056  45.005  15.068  0.00  0.00     0.061 A 
HETATM    9  O   UNK A          28.449  44.163  15.439  0.00  0.00     0.000 OA
HETATM   10  C   UNK A          28.169  43.837  16.342  0.00  0.00     0.128 A 
HETATM   11  C   UNK A          27.497  44.352  16.874  0.00  0.00     0.126 A 
HETATM   12  O   UNK A          28.562  42.996  16.713  0.00  0.00    -0.387 OA
HETATM   13  C   UNK A          27.217  44.026  17.777  0.00  0.00     0.492 A 
HETATM   14  C   UNK A          27.610  43.184  18.148  0.00  0.00     0.032 A 
HETATM   15  C   UNK A          28.282  42.669  17.616  0.00  0.00     0.078 A 
HETATM   16  C   UNK A          28.674  41.828  17.987  0.00  0.00     0.111 A 
BRANCH   8  17
HETATM   17  C   UNK A          28.345  45.348  14.128  0.00  0.00    -0.002 A 
HETATM   18  C   UNK A          29.119  45.973  14.025  0.00  0.00     0.011 A 
HETATM   19  C   UNK A          29.658  46.298  14.854  0.00  0.00     0.090 A 
HETATM   20  C   UNK A          29.384  46.294  13.116  0.00  0.00     0.128 A 
HETATM   21  C   UNK A          28.876  45.990  12.310  0.00  0.00     0.118 A 
HETATM   22  C   UNK A          29.164  46.334  11.369  0.00  0.00     0.122 A 
HETATM   23  C   UNK A          28.640  46.022  10.525  0.00  0.00     0.015 A 
HETATM   24  O   UNK A          29.940  46.958  11.277  0.00  0.00    -0.302 OA
HETATM   25  C   UNK A          28.102  45.366  12.413  0.00  0.00     0.143 A 
HETATM   26  C   UNK A          27.833  45.371  10.633  0.00  0.00     0.015 A 
HETATM   27  C   UNK A          28.940  46.379   9.546  0.00  0.00     0.015 A 
HETATM   28  C   UNK A          27.562  45.041  11.582  0.00  0.00     0.124 A 
HETATM   29  C   UNK A          27.271  45.033   9.769  0.00  0.00     0.015 A 
HETATM   30  O   UNK A          26.790  44.416  11.698  0.00  0.00    -0.302 OA
HETATM   31  C   UNK A          27.837  45.045  13.322  0.00  0.00     0.140 A 
HETATM   32  C   UNK A          27.553  45.376   8.779  0.00  0.00     0.001 A 
HETATM   33  C   UNK A          28.393  46.054   8.667  0.00  0.00     0.001 A 
BRANCH  20  34
HETATM   34  O   UNK A          30.159  46.919  13.012  0.00  0.00    -0.382 OA
HETATM   35  H   UNK A          30.072  47.530  13.060  0.00  0.00     0.211 HD
ENDBRANCH  20  34
BRANCH  31  36
HETATM   36  O   UNK A          27.062  44.420  13.425  0.00  0.00    -0.380 OA
HETATM   37  H   UNK A          26.627  44.534  13.852  0.00  0.00     0.211 HD
ENDBRANCH  31  36
ENDBRANCH   8  17
BRANCH  13  38
HETATM   38  N   UNK A          26.545  44.541  18.309  0.00  0.00    -0.125 N 
HETATM   39  H   UNK A          26.013  44.272  18.480  0.00  0.00     0.257 HD
HETATM   40  H   UNK A          26.660  45.130  18.467  0.00  0.00     0.257 HD
ENDBRANCH  13  38
BRANCH  14  41
HETATM   41  O   UNK A          27.330  42.858  19.051  0.00  0.00     0.000 OA
HETATM   42  H   UNK A          27.323  42.250  19.172  0.00  0.00     0.000 HD
ENDBRANCH  14  41
ENDBRANCH   1   7
TORSDOF 11
ENDMDL
MODEL 7
REMARK VINA RESULT:      -9.6      4.696      8.859
REMARK  11 active torsions:
REMARK  status: ('A' for Active; 'I' for Inactive)
REMARK    1  A    between atoms: N_1  and  C_10 
REMARK    2  A    between atoms: C_2  and  C_6 
REMARK    3  A    between atoms: C_3  and  C_4 
REMARK    4  A    between atoms: C_3  and  C_5 
REMARK    5  A    between atoms: C_6  and  C_13 
REMARK    6  A    between atoms: C_11  and  O_31 
REMARK    7  A    between atoms: C_13  and  O_32 
REMARK    8  A    between atoms: C_15  and  O_33 
REMARK    9  A    between atoms: C_15  and  C_16 
REMARK   10  A    between atoms: C_16  and  C_17 
REMARK   11  A    between atoms: C_17  and  C_20 
ROOT
HETATM    1  C   UNK A          29.458  47.086  14.589  0.00  0.00    -0.006 A 
HETATM    2  C   UNK A          29.803  47.999  14.807  0.00  0.00     0.043 A 
HETATM    3  C   UNK A          30.070  48.622  14.072  0.00  0.00     0.160 C 
HETATM    4  O   UNK A          29.536  47.377  15.542  0.00  0.00     0.000 OA
HETATM    5  O   UNK A          29.881  48.289  15.761  0.00  0.00    -0.242 OA
HETATM    6  H   UNK A          29.370  46.990  15.998  0.00  0.00     0.000 HD
ENDROOT
BRANCH   1   7
HETATM    7  C   UNK A          29.090  46.162  14.896  0.00  0.00     0.023 A 
HETATM    8  C   UNK A          28.681  45.512  14.191  0.00  0.00     0.061 A 
HETATM    9  O   UNK A          28.324  44.622  14.475  0.00  0.00     0.000 OA
HETATM   10  C   UNK A          28.360  44.353  15.437  0.00  0.00     0.128 A 
HETATM   11  C   UNK A          28.751  44.974  16.116  0.00  0.00     0.126 A 
HETATM   12  O   UNK A          28.003  43.463  15.721  0.00  0.00    -0.387 OA
HETATM   13  C   UNK A          28.787  44.705  17.079  0.00  0.00     0.492 A 
HETATM   14  C   UNK A          28.430  43.815  17.362  0.00  0.00     0.032 A 
HETATM   15  C   UNK A          28.038  43.193  16.683  0.00  0.00     0.078 A 
HETATM   16  C   UNK A          27.681  42.303  16.967  0.00  0.00     0.111 A 
BRANCH   8  17
HETATM   17  C   UNK A          28.646  45.796  13.190  0.00  0.00    -0.002 A 
HETATM   18  C   UNK A          29.372  45.531  12.555  0.00  0.00     0.011 A 
HETATM   19  C   UNK A          30.184  44.964  12.878  0.00  0.00     0.090 A 
HETATM   20  C   UNK A          29.325  45.811  11.597  0.00  0.00     0.128 A 
HETATM   21  C   UNK A          28.552  46.356  11.273  0.00  0.00     0.118 A 
HETATM   22  C   UNK A          28.517  46.640  10.270  0.00  0.00     0.122 A 
HETATM   23  C   UNK A          27.715  47.208   9.925  0.00  0.00     0.015 A 
HETATM   24  O   UNK A          29.248  46.370   9.644  0.00  0.00    -0.302 OA
HETATM   25  C   UNK A          27.826  46.621  11.906  0.00  0.00     0.143 A 
HETATM   26  C   UNK A          26.958  47.484  10.586  0.00  0.00     0.015 A 
HETATM   27  C   UNK A          27.678  47.504   8.882  0.00  0.00     0.015 A 
HETATM   28  C   UNK A          27.014  47.189  11.583  0.00  0.00     0.124 A 
HETATM   29  C   UNK A          26.113  48.075  10.250  0.00  0.00     0.015 A 
HETATM   30  O   UNK A          26.294  47.448  12.227  0.00  0.00    -0.302 OA
HETATM   31  C   UNK A          27.873  46.341  12.865  0.00  0.00     0.140 A 
HETATM   32  C   UNK A          26.054  48.383   9.211  0.00  0.00     0.001 A 
HETATM   33  C   UNK A          26.842  48.095   8.522  0.00  0.00     0.001 A 
BRANCH  20  34
HETATM   34  O   UNK A          30.052  45.546  10.962  0.00  0.00    -0.382 OA
HETATM   35  H   UNK A          30.568  45.281  11.176  0.00  0.00     0.211 HD
ENDBRANCH  20  34
BRANCH  31  36
HETATM   36  O   UNK A          27.147  46.606  13.500  0.00  0.00    -0.380 OA
HETATM   37  H   UNK A          27.290  46.807  14.068  0.00  0.00     0.211 HD
ENDBRANCH  31  36
ENDBRANCH   8  17
BRANCH  13  38
HETATM   38  N   UNK A          29.178  45.326  17.757  0.00  0.00    -0.125 N 
HETATM   39  H   UNK A          29.041  45.255  18.358  0.00  0.00     0.257 HD
HETATM   40  H   UNK A          29.559  45.781  17.578  0.00  0.00     0.257 HD
ENDBRANCH  13  38
BRANCH  14  41
HETATM   41  O   UNK A          28.465  43.545  18.325  0.00  0.00     0.000 OA
HETATM   42  H   UNK A          28.978  43.284  18.555  0.00  0.00     0.000 HD
ENDBRANCH  14  41
ENDBRANCH   1   7
TORSDOF 11
ENDMDL
MODEL 8
REMARK VINA RESULT:      -9.6      5.826      8.114
REMARK  11 active torsions:
REMARK  status: ('A' for Active; 'I' for Inactive)
REMARK    1  A    between atoms: N_1  and  C_10 
REMARK    2  A    between atoms: C_2  and  C_6 
REMARK    3  A    between atoms: C_3  and  C_4 
REMARK    4  A    between atoms: C_3  and  C_5 
REMARK    5  A    between atoms: C_6  and  C_13 
REMARK    6  A    between atoms: C_11  and  O_31 
REMARK    7  A    between atoms: C_13  and  O_32 
REMARK    8  A    between atoms: C_15  and  O_33 
REMARK    9  A    between atoms: C_15  and  C_16 
REMARK   10  A    between atoms: C_16  and  C_17 
REMARK   11  A    between atoms: C_17  and  C_20 
ROOT
HETATM    1  C   UNK A          27.664  47.189  12.569  0.00  0.00    -0.006 A 
HETATM    2  C   UNK A          27.088  47.956  12.287  0.00  0.00     0.043 A 
HETATM    3  C   UNK A          26.550  48.455  12.967  0.00  0.00     0.160 C 
HETATM    4  O   UNK A          27.624  47.458  11.606  0.00  0.00     0.000 OA
HETATM    5  O   UNK A          27.048  48.225  11.324  0.00  0.00    -0.242 OA
HETATM    6  H   UNK A          27.957  47.149  11.185  0.00  0.00     0.000 HD
ENDROOT
BRANCH   1   7
HETATM    7  C   UNK A          28.334  46.427  12.333  0.00  0.00     0.023 A 
HETATM    8  C   UNK A          28.696  45.809  13.089  0.00  0.00     0.061 A 
HETATM    9  O   UNK A          29.340  45.075  12.874  0.00  0.00     0.000 OA
HETATM   10  C   UNK A          29.637  44.931  11.930  0.00  0.00     0.128 A 
HETATM   11  C   UNK A          29.291  45.522  11.202  0.00  0.00     0.126 A 
HETATM   12  O   UNK A          30.281  44.197  11.715  0.00  0.00    -0.387 OA
HETATM   13  C   UNK A          29.589  45.379  10.258  0.00  0.00     0.492 A 
HETATM   14  C   UNK A          30.232  44.644  10.043  0.00  0.00     0.032 A 
HETATM   15  C   UNK A          30.578  44.053  10.771  0.00  0.00     0.078 A 
HETATM   16  C   UNK A          31.222  43.319  10.556  0.00  0.00     0.111 A 
BRANCH   8  17
HETATM   17  C   UNK A          28.384  45.962  14.071  0.00  0.00    -0.002 A 
HETATM   18  C   UNK A          27.611  45.453  14.449  0.00  0.00     0.011 A 
HETATM   19  C   UNK A          27.097  44.755  13.872  0.00  0.00     0.090 A 
HETATM   20  C   UNK A          27.322  45.610  15.394  0.00  0.00     0.128 A 
HETATM   21  C   UNK A          27.807  46.277  15.960  0.00  0.00     0.118 A 
HETATM   22  C   UNK A          27.495  46.430  16.943  0.00  0.00     0.122 A 
HETATM   23  C   UNK A          27.994  47.122  17.538  0.00  0.00     0.015 A 
HETATM   24  O   UNK A          26.721  45.915  17.311  0.00  0.00    -0.302 OA
HETATM   25  C   UNK A          28.580  46.786  15.582  0.00  0.00     0.143 A 
HETATM   26  C   UNK A          28.800  47.654  17.144  0.00  0.00     0.015 A 
HETATM   27  C   UNK A          27.670  47.282  18.561  0.00  0.00     0.015 A 
HETATM   28  C   UNK A          29.095  47.484  16.160  0.00  0.00     0.124 A 
HETATM   29  C   UNK A          29.336  48.380  17.746  0.00  0.00     0.015 A 
HETATM   30  O   UNK A          29.866  47.988  15.771  0.00  0.00    -0.302 OA
HETATM   31  C   UNK A          28.868  46.629  14.638  0.00  0.00     0.140 A 
HETATM   32  C   UNK A          29.029  48.557  18.772  0.00  0.00     0.001 A 
HETATM   33  C   UNK A          28.190  48.004  19.182  0.00  0.00     0.001 A 
BRANCH  20  34
HETATM   34  O   UNK A          26.549  45.101  15.772  0.00  0.00    -0.382 OA
HETATM   35  H   UNK A          26.533  44.966  16.376  0.00  0.00     0.211 HD
ENDBRANCH  20  34
BRANCH  31  36
HETATM   36  O   UNK A          29.641  47.138  14.260  0.00  0.00    -0.380 OA
HETATM   37  H   UNK A          29.596  47.400  13.700  0.00  0.00     0.211 HD
ENDBRANCH  31  36
ENDBRANCH   8  17
BRANCH  13  38
HETATM   38  N   UNK A          29.243  45.970   9.529  0.00  0.00    -0.125 N 
HETATM   39  H   UNK A          29.630  46.189   9.097  0.00  0.00     0.257 HD
HETATM   40  H   UNK A          28.641  46.118   9.509  0.00  0.00     0.257 HD
ENDBRANCH  13  38
BRANCH  14  41
HETATM   41  O   UNK A          30.530  44.501   9.099  0.00  0.00     0.000 OA
HETATM   42  H   UNK A          31.122  44.363   8.978  0.00  0.00     0.000 HD
ENDBRANCH  14  41
ENDBRANCH   1   7
TORSDOF 11
ENDMDL
MODEL 9
REMARK VINA RESULT:      -9.5      3.884      7.142
REMARK  11 active torsions:
REMARK  status: ('A' for Active; 'I' for Inactive)
REMARK    1  A    between atoms: N_1  and  C_10 
REMARK    2  A    between atoms: C_2  and  C_6 
REMARK    3  A    between atoms: C_3  and  C_4 
REMARK    4  A    between atoms: C_3  and  C_5 
REMARK    5  A    between atoms: C_6  and  C_13 
REMARK    6  A    between atoms: C_11  and  O_31 
REMARK    7  A    between atoms: C_13  and  O_32 
REMARK    8  A    between atoms: C_15  and  O_33 
REMARK    9  A    between atoms: C_15  and  C_16 
REMARK   10  A    between atoms: C_16  and  C_17 
REMARK   11  A    between atoms: C_17  and  C_20 
ROOT
HETATM    1  C   UNK A          28.414  45.092  17.383  0.00  0.00    -0.006 A 
HETATM    2  C   UNK A          28.188  44.135  17.204  0.00  0.00     0.043 A 
HETATM    3  C   UNK A          28.231  43.777  16.271  0.00  0.00     0.160 C 
HETATM    4  O   UNK A          28.145  44.492  18.136  0.00  0.00     0.000 OA
HETATM    5  O   UNK A          27.919  43.534  17.957  0.00  0.00    -0.242 OA
HETATM    6  H   UNK A          28.119  44.714  18.715  0.00  0.00     0.000 HD
ENDROOT
BRANCH   1   7
HETATM    7  C   UNK A          28.525  45.885  18.049  0.00  0.00     0.023 A 
HETATM    8  C   UNK A          28.711  46.842  17.682  0.00  0.00     0.061 A 
HETATM    9  O   UNK A          28.819  47.611  18.312  0.00  0.00     0.000 OA
HETATM   10  C   UNK A          28.749  47.463  19.298  0.00  0.00     0.128 A 
HETATM   11  C   UNK A          28.571  46.545  19.655  0.00  0.00     0.126 A 
HETATM   12  O   UNK A          28.857  48.231  19.929  0.00  0.00    -0.387 OA
HETATM   13  C   UNK A          28.501  46.397  20.641  0.00  0.00     0.492 A 
HETATM   14  C   UNK A          28.609  47.166  21.271  0.00  0.00     0.032 A 
HETATM   15  C   UNK A          28.787  48.083  20.915  0.00  0.00     0.078 A 
HETATM   16  C   UNK A          28.896  48.852  21.545  0.00  0.00     0.111 A 
BRANCH   8  17
HETATM   17  C   UNK A          28.783  46.993  16.654  0.00  0.00    -0.002 A 
HETATM   18  C   UNK A          29.668  46.948  16.189  0.00  0.00     0.011 A 
HETATM   19  C   UNK A          30.541  46.749  16.720  0.00  0.00     0.090 A 
HETATM   20  C   UNK A          29.721  47.094  15.201  0.00  0.00     0.128 A 
HETATM   21  C   UNK A          28.891  47.286  14.679  0.00  0.00     0.118 A 
HETATM   22  C   UNK A          28.963  47.437  13.649  0.00  0.00     0.122 A 
HETATM   23  C   UNK A          28.103  47.637  13.098  0.00  0.00     0.015 A 
HETATM   24  O   UNK A          29.852  47.390  13.195  0.00  0.00    -0.302 OA
HETATM   25  C   UNK A          28.007  47.331  15.143  0.00  0.00     0.143 A 
HETATM   26  C   UNK A          27.180  47.684  13.583  0.00  0.00     0.015 A 
HETATM   27  C   UNK A          28.177  47.793  12.028  0.00  0.00     0.015 A 
HETATM   28  C   UNK A          27.133  47.530  14.611  0.00  0.00     0.124 A 
HETATM   29  C   UNK A          26.271  47.890  13.029  0.00  0.00     0.015 A 
HETATM   30  O   UNK A          26.254  47.572  15.087  0.00  0.00    -0.302 OA
HETATM   31  C   UNK A          27.953  47.184  16.130  0.00  0.00     0.140 A 
HETATM   32  C   UNK A          26.321  48.051  11.957  0.00  0.00     0.001 A 
HETATM   33  C   UNK A          27.281  48.002  11.453  0.00  0.00     0.001 A 
BRANCH  20  34
HETATM   34  O   UNK A          30.606  47.049  14.737  0.00  0.00    -0.382 OA
HETATM   35  H   UNK A          31.035  47.482  14.846  0.00  0.00     0.211 HD
ENDBRANCH  20  34
BRANCH  31  36
HETATM   36  O   UNK A          27.068  47.229  16.595  0.00  0.00    -0.380 OA
HETATM   37  H   UNK A          26.819  46.716  16.836  0.00  0.00     0.211 HD
ENDBRANCH  31  36
ENDBRANCH   8  17
BRANCH  13  38
HETATM   38  N   UNK A          28.322  45.480  20.997  0.00  0.00    -0.125 N 
HETATM   39  H   UNK A          28.762  45.179  21.314  0.00  0.00     0.257 HD
HETATM   40  H   UNK A          27.771  45.211  20.901  0.00  0.00     0.257 HD
ENDBRANCH  13  38
BRANCH  14  41
HETATM   41  O   UNK A          28.539  47.017  22.258  0.00  0.00     0.000 OA
HETATM   42  H   UNK A          28.606  47.494  22.649  0.00  0.00     0.000 HD
ENDBRANCH  14  41
ENDBRANCH   1   7
TORSDOF 11
ENDMDL
