REMARK  10 active torsions:
REMARK  status: ('A' for Active; 'I' for Inactive)
REMARK    1  A    between atoms: N_1  and  C_3 
REMARK    2  A    between atoms: N_2  and  C_5 
REMARK    3  A    between atoms: C_3  and  C_4 
REMARK    4  A    between atoms: C_4  and  C_5 
REMARK    5  A    between atoms: C_8  and  C_9 
REMARK    6  A    between atoms: C_9  and  S_21 
REMARK    7  A    between atoms: C_10  and  C_16 
REMARK    8  A    between atoms: C_12  and  C_18 
REMARK    9  A    between atoms: C_12  and  S_21 
REMARK   10  A    between atoms: C_13  and  S_21 
ROOT
HETATM    1  N   UNK             4.666  -0.983   0.000  0.00  0.00     0.000 N 
HETATM    2  C   UNK             5.532  -1.483   0.000  0.00  0.00     0.022 A 
HETATM    3  C   UNK             3.800  -1.483   0.000  0.00  0.00     0.019 A 
HETATM    4  C   UNK             5.532  -2.483   0.000  0.00  0.00     0.022 A 
HETATM    5  C   UNK             3.800  -2.483   0.000  0.00  0.00     0.019 A 
HETATM    6  C   UNK             6.426  -0.948   0.000  0.00  0.00     0.064 A 
HETATM    7  C   UNK             2.906  -0.948   0.000  0.00  0.00     0.045 A 
HETATM    8  C   UNK             6.426  -3.017   0.000  0.00  0.00     0.066 A 
HETATM    9  C   UNK             2.906  -3.017   0.000  0.00  0.00     0.063 A 
HETATM   10  C   UNK             2.000  -1.462   0.000  0.00  0.00    -0.026 A 
HETATM   11  C   UNK             2.000  -2.503   0.000  0.00  0.00    -0.016 A 
HETATM   12  S   UNK             4.666  -2.983   0.000  0.00  0.00    -0.237 SA
ENDROOT
BRANCH   1  13
HETATM   13  C   UNK             4.666   0.017   0.000  0.00  0.00    -0.004 C 
BRANCH  13  14
HETATM   14  C   UNK             3.800   0.517   0.000  0.00  0.00     0.040 C 
BRANCH  14  15
HETATM   15  C   UNK             3.800   1.517   0.000  0.00  0.00    -0.022 C 
BRANCH  15  16
HETATM   16  N   UNK             2.934   2.017   0.000  0.00  0.00     0.000 N 
HETATM   17  C   UNK             2.934   3.017   0.000  0.00  0.00     0.000 A 
HETATM   18  C   UNK             2.068   1.517   0.000  0.00  0.00     0.000 A 
ENDBRANCH  15  16
ENDBRANCH  14  15
ENDBRANCH  13  14
ENDBRANCH   1  13
BRANCH   6  19
HETATM   19  C   UNK             7.332  -1.462   0.000  0.00  0.00     0.000 A 
HETATM   20  C   UNK             7.332  -2.503   0.000  0.00  0.00     0.124 A 
HETATM   21 Cl   UNK             8.196  -0.959   0.000  0.00  0.00    -0.179 Cl
ENDBRANCH   6  19
TORSDOF 10
